/Users/chinazoemeh/HopeMScP/data/ligands/bd2/BRD4_BD2_17_7USG/BRD4_BD2_17_7USG.pdb
 OpenBabel07172512173D

  8  6  0  0  0  0  0  0  0  0999 V2000
   21.9740    2.2140   13.0680 C   0  0  0  0  0  0  0  0  0  0  0  0
   22.7150    0.9820   13.1570 O   0  0  0  0  0  0  0  0  0  0  0  0
   21.3950    2.3830   14.4770 C   0  0  0  0  0  0  0  0  0  0  0  0
   20.8360    3.7100   14.4520 O   0  0  0  0  0  0  0  0  0  0  0  0
    8.7380  -14.7100    7.8240 C   0  0  0  0  0  0  0  0  0  0  0  0
    7.3780  -14.2590    7.9800 O   0  0  0  0  0  0  0  0  0  0  0  0
    9.0480  -15.3680    9.1620 C   0  0  0  0  0  0  0  0  0  0  0  0
    7.7720  -15.8840    9.5860 O   0  0  0  0  0  0  0  0  0  0  0  0
  1  2  1  0  0  0  0
  1  3  1  0  0  0  0
  4  3  1  0  0  0  0
  5  6  1  0  0  0  0
  5  7  1  0  0  0  0
  7  8  1  0  0  0  0
M  END
$$$$
