/Users/chinazoemeh/HopeMScP/data/ligands/bd2/BRD4_BD2_24_8V9F/BRD4_BD2_24_8V9F.pdb
 OpenBabel07172512173D

 63 67  0  0  1  0  0  0  0  0999 V2000
   11.7580   -3.5390    2.4800 C   0  0  0  0  0  0  0  0  0  0  0  0
    8.8700   -5.1990   -2.3200 C   0  0  0  0  0  0  0  0  0  0  0  0
    8.9690   -5.7900   -4.9670 C   0  0  0  0  0  0  0  0  0  0  0  0
    9.5300   -6.6700   -4.0120 C   0  0  0  0  0  0  0  0  0  0  0  0
    9.9600   -9.9850   -5.4640 C   0  0  0  0  0  0  0  0  0  0  0  0
    9.1310  -11.5840   -3.8930 C   0  0  0  0  0  0  0  0  0  0  0  0
    7.6770  -10.6580   -2.1020 C   0  0  0  0  0  0  0  0  0  0  0  0
    7.9120   -7.1050    1.6440 C   0  0  0  0  0  0  0  0  0  0  0  0
    9.0230   -6.9880    0.6060 C   0  0  2  0  0  0  0  0  0  0  0  0
    9.1520   -7.7270   -0.5310 C   0  0  2  0  0  0  0  0  0  0  0  0
   10.1390   -7.2850   -1.5660 C   0  0  2  0  0  0  0  0  0  0  0  0
   11.2800   -6.5860   -0.9320 C   0  0  0  0  0  0  0  0  0  0  0  0
   11.2470   -6.0980    0.3290 C   0  0  0  0  0  0  0  0  0  0  0  0
   13.4600   -5.1820    0.1750 C   0  0  0  0  0  0  0  0  0  0  0  0
   12.4790   -6.3970   -1.6940 C   0  0  0  0  0  0  0  0  0  0  0  0
   12.3110   -4.9120    2.2920 C   0  0  0  0  0  0  0  0  0  0  0  0
    9.5200   -6.3760   -2.6580 C   0  0  0  0  0  0  0  0  0  0  0  0
    8.3120   -4.3320   -3.2450 C   0  0  0  0  0  0  0  0  0  0  0  0
    8.3480   -4.5990   -4.5760 C   0  0  0  0  0  0  0  0  0  0  0  0
    9.7750   -8.4170   -5.5800 C   0  0  0  0  0  0  0  0  0  0  0  0
    8.4900  -11.7490   -2.7080 C   0  0  0  0  0  0  0  0  0  0  0  0
    8.0840   -8.6230   -0.9040 C   0  0  0  0  0  0  0  0  0  0  0  0
    8.6440  -12.9850   -2.0580 C   0  0  0  0  0  0  0  0  0  0  0  0
    9.4110  -14.0050   -2.5920 C   0  0  0  0  0  0  0  0  0  0  0  0
   10.0460  -13.8200   -3.8140 C   0  0  0  0  0  0  0  0  0  0  0  0
    9.9060  -12.5930   -4.4730 C   0  0  0  0  0  0  0  0  0  0  0  0
    7.7610   -3.6870   -5.5440 C   0  0  0  0  0  0  0  0  0  0  0  0
   10.0950   -6.2700    1.0710 N   0  0  0  0  0  0  0  0  0  0  0  0
   12.3030   -5.4290    0.9100 N   0  0  0  0  0  0  0  0  0  0  0  0
   13.5330   -5.6930   -1.0740 N   0  0  0  0  0  0  0  0  0  0  0  0
   12.6940   -6.8100   -2.8350 O   0  0  0  0  0  0  0  0  0  0  0  0
   14.3820   -4.5480    0.6550 O   0  0  0  0  0  0  0  0  0  0  0  0
   10.1450   -7.8750   -4.3480 O   0  0  0  0  0  0  0  0  0  0  0  0
    8.9790  -10.4120   -4.5710 O   0  0  0  0  0  0  0  0  0  0  0  0
    8.5290   -9.5740   -1.7440 O   0  0  0  0  0  0  0  0  0  0  0  0
    6.8870   -8.6040   -0.5980 O   0  0  0  0  0  0  0  0  0  0  0  0
   12.3650   -2.8930    2.8740 H   0  0  0  0  0  0  0  0  0  0  0  0
   10.9770   -3.4760    3.0520 H   0  0  0  0  0  0  0  0  0  0  0  0
   11.4670   -3.0910    1.6700 H   0  0  0  0  0  0  0  0  0  0  0  0
    8.7780   -4.9330   -1.4340 H   0  0  0  0  0  0  0  0  0  0  0  0
    9.0080   -5.9960   -5.8730 H   0  0  0  0  0  0  0  0  0  0  0  0
   10.8350  -10.2040   -5.1080 H   0  0  0  0  0  0  0  0  0  0  0  0
    9.8200  -10.4140   -6.3230 H   0  0  0  0  0  0  0  0  0  0  0  0
    7.1910  -10.9740   -1.3240 H   0  0  0  0  0  0  0  0  0  0  0  0
    6.9870  -10.3550   -2.7130 H   0  0  0  0  0  0  0  0  0  0  0  0
    7.0190   -7.1550    1.2680 H   0  0  0  0  0  0  0  0  0  0  0  0
    7.8680   -6.3630    2.2670 H   0  0  0  0  0  0  0  0  0  0  0  0
    7.9770   -7.8900    2.2110 H   0  0  0  0  0  0  0  0  0  0  0  0
   10.6000   -8.0420   -1.9610 H   0  0  0  0  0  0  0  0  0  0  0  0
   13.2160   -4.9350    2.6390 H   0  0  0  0  0  0  0  0  0  0  0  0
   11.8270   -5.5260    2.8670 H   0  0  0  0  0  0  0  0  0  0  0  0
    7.9000   -3.5460   -2.9660 H   0  0  0  0  0  0  0  0  0  0  0  0
    8.8610   -8.1270   -5.7290 H   0  0  0  0  0  0  0  0  0  0  0  0
   10.3450   -7.9880   -6.2360 H   0  0  0  0  0  0  0  0  0  0  0  0
    8.2320  -13.1600   -1.2430 H   0  0  0  0  0  0  0  0  0  0  0  0
    9.5150  -14.8180   -2.1520 H   0  0  0  0  0  0  0  0  0  0  0  0
   10.5550  -14.5050   -4.1840 H   0  0  0  0  0  0  0  0  0  0  0  0
   10.3310  -12.4640   -5.2910 H   0  0  0  0  0  0  0  0  0  0  0  0
    7.9270   -3.9500   -6.4630 H   0  0  0  0  0  0  0  0  0  0  0  0
    8.0980   -2.7810   -5.4650 H   0  0  0  0  0  0  0  0  0  0  0  0
    6.7970   -3.6160   -5.4630 H   0  0  0  0  0  0  0  0  0  0  0  0
   10.0250   -5.9250    1.8560 H   0  0  0  0  0  0  0  0  0  0  0  0
   14.2730   -5.5690   -1.4950 H   0  0  0  0  0  0  0  0  0  0  0  0
  1 37  1  0  0  0  0
  1 38  1  0  0  0  0
  2 40  1  0  0  0  0
  3 19  2  0  0  0  0
  3  4  1  0  0  0  0
  4 17  2  0  0  0  0
  5 42  1  0  0  0  0
  5 34  1  0  0  0  0
  6 21  1  0  0  0  0
  7 35  1  0  0  0  0
  7 44  1  0  0  0  0
  8 48  1  0  0  0  0
  8 47  1  0  0  0  0
  9 28  1  0  0  0  0
  9  8  1  1  0  0  0
 10 22  1  6  0  0  0
 10  9  1  0  0  0  0
 11 49  1  6  0  0  0
 11 12  1  0  0  0  0
 11 10  1  0  0  0  0
 12 13  2  0  0  0  0
 13 29  1  0  0  0  0
 13 28  1  0  0  0  0
 14 32  2  0  0  0  0
 14 29  1  0  0  0  0
 15 30  1  0  0  0  0
 15 12  1  0  0  0  0
 16  1  1  0  0  0  0
 16 50  1  0  0  0  0
 16 51  1  0  0  0  0
 17  2  1  0  0  0  0
 17 11  1  0  0  0  0
 18 52  1  0  0  0  0
 18  2  2  0  0  0  0
 19 18  1  0  0  0  0
 20  5  1  0  0  0  0
 20 33  1  0  0  0  0
 21  7  1  0  0  0  0
 21 23  2  0  0  0  0
 22 36  2  0  0  0  0
 23 55  1  0  0  0  0
 24 56  1  0  0  0  0
 24 23  1  0  0  0  0
 25 24  2  0  0  0  0
 26  6  2  0  0  0  0
 26 25  1  0  0  0  0
 27 60  1  0  0  0  0
 27 61  1  0  0  0  0
 27 19  1  0  0  0  0
 28 62  1  0  0  0  0
 29 16  1  0  0  0  0
 30 14  1  0  0  0  0
 31 15  2  0  0  0  0
 33  4  1  0  0  0  0
 34  6  1  0  0  0  0
 35 22  1  0  0  0  0
 39  1  1  0  0  0  0
 41  3  1  0  0  0  0
 43  5  1  0  0  0  0
 45  7  1  0  0  0  0
 46  8  1  0  0  0  0
 53 20  1  0  0  0  0
 54 20  1  0  0  0  0
 57 25  1  0  0  0  0
 58 26  1  0  0  0  0
 59 27  1  0  0  0  0
 63 30  1  0  0  0  0
M  END
$$$$
