/Users/chinazoemeh/HopeMScP/data/ligands/bd2/BRD4_BD2_34_8BDT/BRD4_BD2_34_8BDT.pdb
 OpenBabel07172512173D

152166  0  0  1  0  0  0  0  0999 V2000
    8.0590   22.3060  -16.1730 N   0  0  0  0  0  0  0  0  0  0  0  0
    5.3220   22.6190  -14.2830 C   0  0  0  0  0  0  0  0  0  0  0  0
    6.0490   23.4250  -15.3820 C   0  0  1  0  0  0  0  0  0  0  0  0
   10.7370   23.8000  -18.5360 N   0  0  0  0  0  0  0  0  0  0  0  0
    6.7710   22.5520  -16.3970 C   0  0  0  0  0  0  0  0  0  0  0  0
    4.3200   24.5010  -13.1120 O   0  0  0  0  0  0  0  0  0  0  0  0
    3.8750   26.1500  -18.7500 C   0  0  0  0  0  0  0  0  0  0  0  0
    8.4170   25.7040  -23.3380 O   0  0  0  0  0  0  0  0  0  0  0  0
    3.6600   23.8590  -15.4420 C   0  0  0  0  0  0  0  0  0  0  0  0
    4.0440   23.4040  -14.0300 C   0  0  1  0  0  0  0  0  0  0  0  0
   13.4020   23.4390  -22.8930 N   0  0  0  0  0  0  0  0  0  0  0  0
    5.3420   25.1960  -16.8560 C   0  0  0  0  0  0  0  0  0  0  0  0
    8.4100   25.4370  -20.0680 O   0  0  0  0  0  0  0  0  0  0  0  0
    4.2970   26.2390  -17.2460 C   0  0  1  0  0  0  0  0  0  0  0  0
    9.6860   24.4130  -16.6300 O   0  0  0  0  0  0  0  0  0  0  0  0
    4.3660   27.3930  -19.4370 C   0  0  0  0  0  0  0  0  0  0  0  0
   14.1140   26.8830  -20.6390 N   0  0  0  0  0  0  0  0  0  0  0  0
    9.3780   31.2520  -19.1290 Cl  0  0  0  0  0  0  0  0  0  0  0  0
   10.7480   30.2070  -19.2980 C   0  0  0  0  0  0  0  0  0  0  0  0
   10.6650   29.1080  -20.1410 C   0  0  0  0  0  0  0  0  0  0  0  0
   11.7270   28.2260  -20.2020 C   0  0  0  0  0  0  0  0  0  0  0  0
   11.8770   30.4620  -18.5470 C   0  0  0  0  0  0  0  0  0  0  0  0
   12.9430   29.5840  -18.6210 C   0  0  0  0  0  0  0  0  0  0  0  0
   12.8780   28.4470  -19.4390 C   0  0  0  0  0  0  0  0  0  0  0  0
   14.0170   27.5250  -19.5310 C   0  0  0  0  0  0  0  0  0  0  0  0
   14.9720   27.4770  -18.3870 C   0  0  0  0  0  0  0  0  0  0  0  0
   14.6680   27.3910  -16.9630 C   0  0  0  0  0  0  0  0  0  0  0  0
   13.3000   27.3300  -16.3490 C   0  0  0  0  0  0  0  0  0  0  0  0
   15.7970   27.3470  -16.2070 C   0  0  0  0  0  0  0  0  0  0  0  0
   15.9510   27.3270  -14.7230 C   0  0  0  0  0  0  0  0  0  0  0  0
   17.2170   27.3830  -17.1600 S   0  0  0  0  0  0  0  0  0  0  0  0
   16.3110   27.4770  -18.6030 C   0  0  0  0  0  0  0  0  0  0  0  0
   16.9500   27.4690  -19.7920 N   0  0  0  0  0  0  0  0  0  0  0  0
   16.5030   26.7870  -20.8960 C   0  0  0  0  0  0  0  0  0  0  0  0
   17.3350   26.9720  -21.8960 N   0  0  0  0  0  0  0  0  0  0  0  0
   18.3850   27.7820  -21.4400 N   0  0  0  0  0  0  0  0  0  0  0  0
   18.1460   28.0650  -20.1870 C   0  0  0  0  0  0  0  0  0  0  0  0
   19.0270   28.8770  -19.3130 C   0  0  0  0  0  0  0  0  0  0  0  0
   15.2450   25.9660  -20.8290 C   0  0  2  0  0  0  0  0  0  0  0  0
   15.0040   25.0710  -22.0460 C   0  0  0  0  0  0  0  0  0  0  0  0
   13.9310   24.0020  -21.8020 C   0  0  0  0  0  0  0  0  0  0  0  0
   13.6130   23.6660  -20.6690 O   0  0  0  0  0  0  0  0  0  0  0  0
   12.0120   23.0270  -22.9940 C   0  0  0  0  0  0  0  0  0  0  0  0
   11.4750   23.3950  -24.3370 C   0  0  0  0  0  0  0  0  0  0  0  0
   10.3410   24.2230  -24.1590 O   0  0  0  0  0  0  0  0  0  0  0  0
    9.1520   23.5180  -23.8580 C   0  0  0  0  0  0  0  0  0  0  0  0
    8.0210   24.4800  -23.9480 C   0  0  0  0  0  0  0  0  0  0  0  0
    7.5810   26.1330  -22.2650 C   0  0  0  0  0  0  0  0  0  0  0  0
    7.5040   25.1150  -21.1190 C   0  0  0  0  0  0  0  0  0  0  0  0
    9.7070   24.9670  -20.3860 C   0  0  0  0  0  0  0  0  0  0  0  0
   10.5950   25.0870  -19.1900 C   0  0  0  0  0  0  0  0  0  0  0  0
   10.2190   23.5490  -17.3390 C   0  0  0  0  0  0  0  0  0  0  0  0
   10.2910   22.1030  -16.9120 C   0  0  0  0  0  0  0  0  0  0  0  0
    8.9020   21.5120  -17.0600 C   0  0  1  0  0  0  0  0  0  0  0  0
    8.8960   20.0320  -16.7170 C   0  0  0  0  0  0  0  0  0  0  0  0
    8.7030   19.6230  -15.4010 C   0  0  0  0  0  0  0  0  0  0  0  0
    8.5670   18.2820  -15.0780 C   0  0  0  0  0  0  0  0  0  0  0  0
    8.6740   17.2960  -16.0590 C   0  0  0  0  0  0  0  0  0  0  0  0
    8.5520   15.8540  -15.7120 C   0  0  0  0  0  0  0  0  0  0  0  0
    7.3210   15.2850  -14.5560 S   0  0  0  0  0  0  0  0  0  0  0  0
    7.9450   13.6920  -14.7550 C   0  0  0  0  0  0  0  0  0  0  0  0
    8.9500   13.5570  -15.5860 N   0  0  0  0  0  0  0  0  0  0  0  0
    9.2980   14.7890  -16.1450 C   0  0  0  0  0  0  0  0  0  0  0  0
   10.3930   14.8380  -17.1630 C   0  0  0  0  0  0  0  0  0  0  0  0
    8.9050   17.7020  -17.3770 C   0  0  0  0  0  0  0  0  0  0  0  0
    9.0050   19.0500  -17.6980 C   0  0  0  0  0  0  0  0  0  0  0  0
    6.1680   22.1310  -17.3520 O   0  0  0  0  0  0  0  0  0  0  0  0
    4.9700   24.1930  -16.0290 N   0  0  0  0  0  0  0  0  0  0  0  0
    6.5150   25.3750  -17.1550 O   0  0  0  0  0  0  0  0  0  0  0  0
    4.2950   24.8880  -19.5000 C   0  0  0  0  0  0  0  0  0  0  0  0
    4.9580   27.5580  -16.9850 C   0  0  0  0  0  0  0  0  0  0  0  0
    4.1920   28.5150  -16.3990 O   0  0  0  0  0  0  0  0  0  0  0  0
    4.9400   29.7320  -16.3080 N   0  0  0  0  0  0  0  0  0  0  0  0
    6.1270   29.4020  -16.8580 C   0  0  0  0  0  0  0  0  0  0  0  0
    7.2680   30.3700  -16.8240 C   0  0  0  0  0  0  0  0  0  0  0  0
    6.1610   28.0650  -17.2840 C   0  0  0  0  0  0  0  0  0  0  0  0
    5.2780   21.6000   19.0040 N   0  0  0  0  0  0  0  0  0  0  0  0
    7.7270   22.8380   17.2650 C   0  0  0  0  0  0  0  0  0  0  0  0
    6.6760   23.4220   18.2320 C   0  0  1  0  0  0  0  0  0  0  0  0
    2.2320   22.2520   21.1420 N   0  0  0  0  0  0  0  0  0  0  0  0
    6.2920   22.4180   19.3250 C   0  0  0  0  0  0  0  0  0  0  0  0
    7.8630   24.7350   15.8050 O   0  0  0  0  0  0  0  0  0  0  0  0
    7.6770   26.6390   21.5510 C   0  0  0  0  0  0  0  0  0  0  0  0
    2.3500   24.7450   26.1450 O   0  0  0  0  0  0  0  0  0  0  0  0
    8.6210   24.8770   18.1170 C   0  0  0  0  0  0  0  0  0  0  0  0
    8.5530   24.0430   16.8410 C   0  0  1  0  0  0  0  0  0  0  0  0
   -0.2200   20.5440   25.7040 N   0  0  0  0  0  0  0  0  0  0  0  0
    6.6180   25.4280   19.5710 C   0  0  0  0  0  0  0  0  0  0  0  0
    4.2120   24.1720   23.4220 O   0  0  0  0  0  0  0  0  0  0  0  0
    7.2520   26.7300   20.0490 C   0  0  1  0  0  0  0  0  0  0  0  0
    2.3720   22.6860   18.9240 O   0  0  0  0  0  0  0  0  0  0  0  0
    7.0140   27.7010   22.4000 C   0  0  0  0  0  0  0  0  0  0  0  0
   -2.2540   22.9000   23.2340 N   0  0  0  0  0  0  0  0  0  0  0  0
    0.0170   29.0430   21.8970 Cl  0  0  0  0  0  0  0  0  0  0  0  0
   -0.6600   27.4410   21.9340 C   0  0  0  0  0  0  0  0  0  0  0  0
   -0.0410   26.4610   22.6860 C   0  0  0  0  0  0  0  0  0  0  0  0
   -0.6020   25.1910   22.7480 C   0  0  0  0  0  0  0  0  0  0  0  0
   -1.8170   27.1850   21.2340 C   0  0  0  0  0  0  0  0  0  0  0  0
   -2.3860   25.9220   21.3140 C   0  0  0  0  0  0  0  0  0  0  0  0
   -1.7900   24.9060   22.0740 C   0  0  0  0  0  0  0  0  0  0  0  0
   -2.3940   23.5570   22.1430 C   0  0  0  0  0  0  0  0  0  0  0  0
   -3.1350   23.0800   20.9830 C   0  0  0  0  0  0  0  0  0  0  0  0
   -2.7230   23.1820   19.6140 C   0  0  0  0  0  0  0  0  0  0  0  0
   -1.4120   23.7450   19.1520 C   0  0  0  0  0  0  0  0  0  0  0  0
   -3.6730   22.7090   18.7690 C   0  0  0  0  0  0  0  0  0  0  0  0
   -3.6710   22.6660   17.2730 C   0  0  0  0  0  0  0  0  0  0  0  0
   -5.0700   22.1270   19.6350 S   0  0  0  0  0  0  0  0  0  0  0  0
   -4.3760   22.5060   21.0940 C   0  0  0  0  0  0  0  0  0  0  0  0
   -5.0170   22.1630   22.2020 N   0  0  0  0  0  0  0  0  0  0  0  0
   -4.3270   21.6370   23.2730 C   0  0  0  0  0  0  0  0  0  0  0  0
   -5.1710   21.3240   24.2320 N   0  0  0  0  0  0  0  0  0  0  0  0
   -6.4650   21.6620   23.8030 N   0  0  0  0  0  0  0  0  0  0  0  0
   -6.3670   22.1730   22.6010 C   0  0  0  0  0  0  0  0  0  0  0  0
   -7.5080   22.7420   21.8410 C   0  0  0  0  0  0  0  0  0  0  0  0
   -2.8270   21.5480   23.3170 C   0  0  2  0  0  0  0  0  0  0  0  0
   -2.3440   20.8430   24.5910 C   0  0  0  0  0  0  0  0  0  0  0  0
   -0.8600   20.5410   24.5410 C   0  0  0  0  0  0  0  0  0  0  0  0
   -0.2870   20.3430   23.4740 O   0  0  0  0  0  0  0  0  0  0  0  0
    1.2090   20.2750   25.8170 C   0  0  0  0  0  0  0  0  0  0  0  0
    1.8570   21.0350   26.9410 C   0  0  0  0  0  0  0  0  0  0  0  0
    2.6090   22.1380   26.4270 O   0  0  0  0  0  0  0  0  0  0  0  0
    3.2600   22.9000   27.4560 C   0  0  0  0  0  0  0  0  0  0  0  0
    2.9430   24.3870   27.4040 C   0  0  0  0  0  0  0  0  0  0  0  0
    3.2070   25.4250   25.2190 C   0  0  0  0  0  0  0  0  0  0  0  0
    4.3470   24.5250   24.7870 C   0  0  0  0  0  0  0  0  0  0  0  0
    3.1540   23.2600   23.1500 C   0  0  0  0  0  0  0  0  0  0  0  0
    2.6260   23.5120   21.7620 C   0  0  0  0  0  0  0  0  0  0  0  0
    2.5600   21.9290   19.8840 C   0  0  0  0  0  0  0  0  0  0  0  0
    3.2130   20.5620   19.7080 C   0  0  0  0  0  0  0  0  0  0  0  0
    4.7530   20.5460   19.8680 C   0  0  1  0  0  0  0  0  0  0  0  0
    5.3600   19.1880   19.5520 C   0  0  0  0  0  0  0  0  0  0  0  0
    5.7510   18.8830   18.2560 C   0  0  0  0  0  0  0  0  0  0  0  0
    6.3480   17.6700   17.9510 C   0  0  0  0  0  0  0  0  0  0  0  0
    6.5770   16.7150   18.9410 C   0  0  0  0  0  0  0  0  0  0  0  0
    7.3040   15.4510   18.6290 C   0  0  0  0  0  0  0  0  0  0  0  0
    8.5520   15.4400   17.3710 S   0  0  0  0  0  0  0  0  0  0  0  0
    8.7390   13.7520   17.6390 C   0  0  0  0  0  0  0  0  0  0  0  0
    7.9790   13.2190   18.5600 N   0  0  0  0  0  0  0  0  0  0  0  0
    7.1670   14.1830   19.1450 C   0  0  0  0  0  0  0  0  0  0  0  0
    6.2960   13.7640   20.2850 C   0  0  0  0  0  0  0  0  0  0  0  0
    6.1670   17.0130   20.2400 C   0  0  0  0  0  0  0  0  0  0  0  0
    5.5690   18.2320   20.5350 C   0  0  0  0  0  0  0  0  0  0  0  0
    6.8900   22.3860   20.3970 O   0  0  0  0  0  0  0  0  0  0  0  0
    7.3080   24.6480   18.7310 N   0  0  0  0  0  0  0  0  0  0  0  0
    5.4940   25.1270   19.9270 O   0  0  0  0  0  0  0  0  0  0  0  0
    7.5260   25.2640   22.2020 C   0  0  0  0  0  0  0  0  0  0  0  0
    6.1800   27.7200   19.6560 C   0  0  0  0  0  0  0  0  0  0  0  0
    6.5130   28.6330   18.7090 O   0  0  0  0  0  0  0  0  0  0  0  0
    5.3590   29.3690   18.3460 N   0  0  0  0  0  0  0  0  0  0  0  0
    4.3730   28.8500   19.1600 C   0  0  0  0  0  0  0  0  0  0  0  0
    2.9640   29.3690   19.1500 C   0  0  0  0  0  0  0  0  0  0  0  0
    4.8860   27.8330   19.9770 C   0  0  0  0  0  0  0  0  0  0  0  0
  2 10  1  0  0  0  0
  3  5  1  6  0  0  0
  3  2  1  0  0  0  0
  4 52  1  0  0  0  0
  5  1  1  0  0  0  0
  8 48  1  0  0  0  0
  9 10  1  0  0  0  0
 10  6  1  1  0  0  0
 11 41  1  0  0  0  0
 12 68  1  0  0  0  0
 14  7  1  6  0  0  0
 14 71  1  0  0  0  0
 14 12  1  0  0  0  0
 16  7  1  0  0  0  0
 17 25  2  0  0  0  0
 19 18  1  0  0  0  0
 19 22  1  0  0  0  0
 20 19  2  0  0  0  0
 21 20  1  0  0  0  0
 21 24  2  0  0  0  0
 23 22  2  0  0  0  0
 24 23  1  0  0  0  0
 25 24  1  0  0  0  0
 25 26  1  0  0  0  0
 26 27  1  0  0  0  0
 27 28  1  0  0  0  0
 27 29  2  0  0  0  0
 29 30  1  0  0  0  0
 31 29  1  0  0  0  0
 32 26  2  0  0  0  0
 32 31  1  0  0  0  0
 33 32  1  0  0  0  0
 34 39  1  0  0  0  0
 34 33  1  0  0  0  0
 35 36  1  0  0  0  0
 35 34  2  0  0  0  0
 36 37  2  0  0  0  0
 37 33  1  0  0  0  0
 37 38  1  0  0  0  0
 39 40  1  6  0  0  0
 39 17  1  0  0  0  0
 40 41  1  0  0  0  0
 41 42  2  0  0  0  0
 43 11  1  0  0  0  0
 44 45  1  0  0  0  0
 44 43  1  0  0  0  0
 45 46  1  0  0  0  0
 47 46  1  0  0  0  0
 47  8  1  0  0  0  0
 48 49  1  0  0  0  0
 49 13  1  0  0  0  0
 50 13  1  0  0  0  0
 50 51  1  0  0  0  0
 51  4  1  0  0  0  0
 52 53  1  0  0  0  0
 52 15  2  0  0  0  0
 54 53  1  1  0  0  0
 54 55  1  0  0  0  0
 54  1  1  0  0  0  0
 55 56  1  0  0  0  0
 56 57  2  0  0  0  0
 58 59  1  0  0  0  0
 58 57  1  0  0  0  0
 59 60  1  0  0  0  0
 61 60  1  0  0  0  0
 62 61  2  0  0  0  0
 63 59  2  0  0  0  0
 63 62  1  0  0  0  0
 64 63  1  0  0  0  0
 65 58  2  0  0  0  0
 66 65  1  0  0  0  0
 66 55  2  0  0  0  0
 67  5  2  0  0  0  0
 68  9  1  0  0  0  0
 68  3  1  0  0  0  0
 69 12  2  0  0  0  0
 70  7  1  0  0  0  0
 71 72  1  0  0  0  0
 72 73  1  0  0  0  0
 74 75  1  0  0  0  0
 74 73  2  0  0  0  0
 76 71  2  0  0  0  0
 76 74  1  0  0  0  0
 77 81  1  0  0  0  0
 77130  1  0  0  0  0
 78 79  1  0  0  0  0
 79144  1  0  0  0  0
 79 81  1  1  0  0  0
 80127  1  0  0  0  0
 81143  2  0  0  0  0
 83146  1  0  0  0  0
 83 92  1  0  0  0  0
 84123  1  0  0  0  0
 85144  1  0  0  0  0
 86 82  1  6  0  0  0
 86 78  1  0  0  0  0
 86 85  1  0  0  0  0
 87119  1  0  0  0  0
 88145  2  0  0  0  0
 89125  1  0  0  0  0
 90 88  1  1  0  0  0
 90 83  1  0  0  0  0
 91128  2  0  0  0  0
 93115  1  0  0  0  0
 94 95  1  0  0  0  0
 95 96  1  0  0  0  0
 96 97  2  0  0  0  0
 98 99  1  0  0  0  0
 98 95  2  0  0  0  0
 99100  2  0  0  0  0
100101  1  0  0  0  0
100 97  1  0  0  0  0
101 93  2  0  0  0  0
102108  2  0  0  0  0
102101  1  0  0  0  0
103102  1  0  0  0  0
104103  1  0  0  0  0
105103  2  0  0  0  0
105107  1  0  0  0  0
106105  1  0  0  0  0
107108  1  0  0  0  0
108109  1  0  0  0  0
109113  1  0  0  0  0
109110  1  0  0  0  0
110115  1  0  0  0  0
110111  2  0  0  0  0
112111  1  0  0  0  0
113112  2  0  0  0  0
114113  1  0  0  0  0
115116  1  1  0  0  0
117116  1  0  0  0  0
117 87  1  0  0  0  0
118117  2  0  0  0  0
119120  1  0  0  0  0
121120  1  0  0  0  0
121122  1  0  0  0  0
123122  1  0  0  0  0
124 84  1  0  0  0  0
125124  1  0  0  0  0
126 89  1  0  0  0  0
127126  1  0  0  0  0
128 80  1  0  0  0  0
129128  1  0  0  0  0
130129  1  6  0  0  0
131130  1  0  0  0  0
131142  1  0  0  0  0
132131  2  0  0  0  0
133132  1  0  0  0  0
133134  2  0  0  0  0
134141  1  0  0  0  0
135134  1  0  0  0  0
135139  2  0  0  0  0
136137  1  0  0  0  0
136135  1  0  0  0  0
137138  2  0  0  0  0
138139  1  0  0  0  0
139140  1  0  0  0  0
141142  2  0  0  0  0
144 88  1  0  0  0  0
147152  2  0  0  0  0
147 90  1  0  0  0  0
148147  1  0  0  0  0
149148  1  0  0  0  0
149150  2  0  0  0  0
150152  1  0  0  0  0
151150  1  0  0  0  0
M  END
$$$$
