/Users/chinazoemeh/HopeMScP/data/ligands/bd2/BRD4_BD2_22_5DW2/BRD4_BD2_22_5DW2.pdb
 OpenBabel07172512173D

 16 12  0  0  0  0  0  0  0  0999 V2000
    8.3940    5.3270    3.2800 C   0  0  0  0  0  0  0  0  0  0  0  0
    7.7880    6.6480    3.5150 O   0  0  0  0  0  0  0  0  0  0  0  0
    7.9280    4.3540    4.2650 C   0  0  0  0  0  0  0  0  0  0  0  0
    8.3640    4.5760    5.5290 O   0  0  0  0  0  0  0  0  0  0  0  0
   23.5190    1.5880   -6.7100 C   0  0  0  0  0  0  0  0  0  0  0  0
   22.3080    2.2780   -7.1610 O   0  0  0  0  0  0  0  0  0  0  0  0
   24.5090    2.5090   -6.0370 C   0  0  0  0  0  0  0  0  0  0  0  0
   24.9320    3.4740   -6.8650 O   0  0  0  0  0  0  0  0  0  0  0  0
   20.5530   -3.4870  -12.3180 C   0  0  0  0  0  0  0  0  0  0  0  0
   21.1750   -4.0260  -13.7160 O   0  0  0  0  0  0  0  0  0  0  0  0
   18.9860   -3.4030  -12.2070 C   0  0  0  0  0  0  0  0  0  0  0  0
   18.3300   -2.1850  -12.8690 O   0  0  0  0  0  0  0  0  0  0  0  0
    8.5000    7.8120  -14.1860 C   0  0  0  0  0  0  0  0  0  0  0  0
    8.2570    8.4950  -12.9420 O   0  0  0  0  0  0  0  0  0  0  0  0
    7.6000    7.8440  -15.4920 C   0  0  0  0  0  0  0  0  0  0  0  0
    7.4730    9.2340  -16.0480 O   0  0  0  0  0  0  0  0  0  0  0  0
  1  2  1  0  0  0  0
  1  3  1  0  0  0  0
  3  4  1  0  0  0  0
  5  7  1  0  0  0  0
  6  5  1  0  0  0  0
  8  7  1  0  0  0  0
  9 11  1  0  0  0  0
 10  9  1  0  0  0  0
 12 11  1  0  0  0  0
 13 14  1  0  0  0  0
 15 13  1  0  0  0  0
 16 15  1  0  0  0  0
M  END
$$$$
