/Users/chinazoemeh/HopeMScP/data/ligands/bd2/BRD4_BD2_8_7C6P/BRD4_BD2_8_7C6P.pdb
 OpenBabel07172512173D

 21 23  0  0  0  0  0  0  0  0999 V2000
    3.5160  -14.6980   -7.7400 C   0  0  0  0  0  0  0  0  0  0  0  0
    3.8220  -17.7380  -10.7440 C   0  0  0  0  0  0  0  0  0  0  0  0
    4.4280  -16.4840  -10.8380 C   0  0  0  0  0  0  0  0  0  0  0  0
    5.2420  -16.0560  -11.9910 C   0  0  0  0  0  0  0  0  0  0  0  0
    5.5220  -16.9190  -13.0450 C   0  0  0  0  0  0  0  0  0  0  0  0
    6.2950  -16.4470  -14.0910 C   0  0  0  0  0  0  0  0  0  0  0  0
    6.7980  -15.0520  -14.0580 C   0  0  0  0  0  0  0  0  0  0  0  0
    6.4910  -14.2290  -12.9890 C   0  0  0  0  0  0  0  0  0  0  0  0
    5.7190  -14.7470  -11.9560 C   0  0  0  0  0  0  0  0  0  0  0  0
    3.5980  -15.7590   -8.7490 C   0  0  0  0  0  0  0  0  0  0  0  0
    2.9220  -17.0490   -8.5270 C   0  0  0  0  0  0  0  0  0  0  0  0
    2.1950  -17.2470   -7.3430 C   0  0  0  0  0  0  0  0  0  0  0  0
    2.1160  -16.2310   -6.3690 C   0  0  0  0  0  0  0  0  0  0  0  0
    2.7360  -14.9840   -6.5220 C   0  0  0  0  0  0  0  0  0  0  0  0
    3.0660  -18.0620   -9.6160 C   0  0  0  0  0  0  0  0  0  0  0  0
    4.3090  -15.5340   -9.8710 O   0  0  0  0  0  0  0  0  0  0  0  0
    6.5890  -17.2570  -15.1420 O   0  0  0  0  0  0  0  0  0  0  0  0
    7.5480  -14.5760  -15.0820 O   0  0  0  0  0  0  0  0  0  0  0  0
    2.5300  -19.1870   -9.5350 O   0  0  0  0  0  0  0  0  0  0  0  0
    2.6540  -14.0060   -5.5890 O   0  0  0  0  0  0  0  0  0  0  0  0
    4.1460  -13.5090   -7.9460 O   0  0  0  0  0  0  0  0  0  0  0  0
  1 14  1  0  0  0  0
  2 15  1  0  0  0  0
  3  2  2  0  0  0  0
  3 16  1  0  0  0  0
  4  9  1  0  0  0  0
  4  3  1  0  0  0  0
  5  4  2  0  0  0  0
  6  7  2  0  0  0  0
  6  5  1  0  0  0  0
  7  8  1  0  0  0  0
  8  9  2  0  0  0  0
 10 11  1  0  0  0  0
 10  1  2  0  0  0  0
 11 12  2  0  0  0  0
 12 13  1  0  0  0  0
 14 13  2  0  0  0  0
 14 20  1  0  0  0  0
 15 19  2  0  0  0  0
 15 11  1  0  0  0  0
 16 10  1  0  0  0  0
 17  6  1  0  0  0  0
 18  7  1  0  0  0  0
 21  1  1  0  0  0  0
M  END
$$$$
