/Users/chinazoemeh/HopeMScP/data/ligands/bd2/BRD4_BD2_32_8G46/BRD4_BD2_32_8G46.pdb
 OpenBabel07172512173D

 36 39  0  0  1  0  0  0  0  0999 V2000
  129.9740  113.6800   93.6570 O   0  0  0  0  0  0  0  0  0  0  0  0
  130.8130  114.2950   93.0420 C   0  0  0  0  0  0  0  0  0  0  0  0
  131.5380  115.3390   93.4770 O   0  0  0  0  0  0  0  0  0  0  0  0
  131.3840  115.9100   94.8370 C   0  0  0  0  0  0  0  0  0  0  0  0
  129.9590  116.4120   94.9740 C   0  0  0  0  0  0  0  0  0  0  0  0
  131.6850  114.8280   95.8470 C   0  0  0  0  0  0  0  0  0  0  0  0
  132.3810  117.0380   94.9600 C   0  0  0  0  0  0  0  0  0  0  0  0
  131.1190  113.9970   91.6020 C   0  0  0  0  0  0  0  0  0  0  0  0
  130.6800  115.2300   90.8160 C   0  0  2  0  0  0  0  0  0  0  0  0
  130.6320  115.0010   89.3390 C   0  0  0  0  0  0  0  0  0  0  0  0
  130.7290  113.9230   88.5790 N   0  0  0  0  0  0  0  0  0  0  0  0
  130.6480  114.3370   87.2390 N   0  0  0  0  0  0  0  0  0  0  0  0
  130.5170  115.6360   87.2240 C   0  0  0  0  0  0  0  0  0  0  0  0
  130.3940  116.5140   86.0360 C   0  0  0  0  0  0  0  0  0  0  0  0
  130.4910  116.0880   88.5220 N   0  0  0  0  0  0  0  0  0  0  0  0
  130.4000  117.3890   89.0450 C   0  0  0  0  0  0  0  0  0  0  0  0
  129.7260  117.7950   90.2310 C   0  0  0  0  0  0  0  0  0  0  0  0
  129.9180  119.1970   90.5420 C   0  0  0  0  0  0  0  0  0  0  0  0
  129.3050  119.8730   91.7290 C   0  0  0  0  0  0  0  0  0  0  0  0
  131.2000  118.7490   88.3710 S   0  0  0  0  0  0  0  0  0  0  0  0
  130.6840  119.8420   89.6160 C   0  0  0  0  0  0  0  0  0  0  0  0
  131.0540  121.2870   89.5620 C   0  0  0  0  0  0  0  0  0  0  0  0
  129.3960  115.6680   91.3650 N   0  0  0  0  0  0  0  0  0  0  0  0
  128.9800  116.8450   91.0690 C   0  0  0  0  0  0  0  0  0  0  0  0
  127.6400  117.2020   91.6180 C   0  0  0  0  0  0  0  0  0  0  0  0
  126.8000  118.0850   90.9470 C   0  0  0  0  0  0  0  0  0  0  0  0
  125.5500  118.3940   91.4470 C   0  0  0  0  0  0  0  0  0  0  0  0
  125.1180  117.8110   92.6260 C   0  0  0  0  0  0  0  0  0  0  0  0
  125.9430  116.9280   93.3000 C   0  0  0  0  0  0  0  0  0  0  0  0
  127.1940  116.6280   92.8010 C   0  0  0  0  0  0  0  0  0  0  0  0
  123.8410  118.0590   93.2010 N   0  0  0  0  0  0  0  0  0  0  0  0
  123.0310  119.4640   93.4050 S   0  0  0  0  0  0  0  0  0  0  0  0
  122.9420  120.1090   92.1300 O   0  0  0  0  0  0  0  0  0  0  0  0
  121.8230  119.1300   94.0940 O   0  0  0  0  0  0  0  0  0  0  0  0
  123.8440  120.6250   94.4320 C   0  0  0  0  0  0  0  0  0  0  0  0
  124.2900  120.0560   95.7650 C   0  0  0  0  0  0  0  0  0  0  0  0
  2  3  1  0  0  0  0
  2  1  2  0  0  0  0
  3  4  1  0  0  0  0
  4  7  1  0  0  0  0
  4  5  1  0  0  0  0
  4  6  1  0  0  0  0
  8  2  1  0  0  0  0
  9 23  1  0  0  0  0
  9  8  1  6  0  0  0
 10  9  1  0  0  0  0
 11 10  2  0  0  0  0
 12 11  1  0  0  0  0
 13 12  2  0  0  0  0
 13 15  1  0  0  0  0
 14 13  1  0  0  0  0
 15 16  1  0  0  0  0
 15 10  1  0  0  0  0
 16 17  2  0  0  0  0
 17 18  1  0  0  0  0
 17 24  1  0  0  0  0
 18 19  1  0  0  0  0
 20 16  1  0  0  0  0
 20 21  1  0  0  0  0
 21 18  2  0  0  0  0
 22 21  1  0  0  0  0
 24 23  2  0  0  0  0
 24 25  1  0  0  0  0
 25 30  1  0  0  0  0
 26 27  1  0  0  0  0
 26 25  2  0  0  0  0
 27 28  2  0  0  0  0
 28 31  1  0  0  0  0
 28 29  1  0  0  0  0
 30 29  2  0  0  0  0
 31 32  1  0  0  0  0
 32 34  2  0  0  0  0
 32 35  1  0  0  0  0
 33 32  2  0  0  0  0
 35 36  1  0  0  0  0
M  END
$$$$
