/Users/chinazoemeh/HopeMScP/data/ligands/bd2/BRD4_BD2_35_8BDX/BRD4_BD2_35_8BDX.pdb
 OpenBabel07172512173D

142154  0  0  1  0  0  0  0  0999 V2000
   26.3790   -4.7030   19.7970 C   0  0  0  0  0  0  0  0  0  0  0  0
   27.4080   -0.8850   22.9150 N   0  0  0  0  0  0  0  0  0  0  0  0
   27.9300   -0.3240   21.8110 C   0  0  0  0  0  0  0  0  0  0  0  0
   29.3610    0.2080   21.9270 C   0  0  0  0  0  0  0  0  0  0  0  0
   30.1780   -0.0080   20.6590 C   0  0  1  0  0  0  0  0  0  0  0  0
   31.4790    0.7200   20.6690 C   0  0  0  0  0  0  0  0  0  0  0  0
   33.3840    1.5080   19.9370 C   0  0  0  0  0  0  0  0  0  0  0  0
   34.5130    1.8010   19.0150 C   0  0  0  0  0  0  0  0  0  0  0  0
   31.6200   -0.5380   16.0110 C   0  0  0  0  0  0  0  0  0  0  0  0
   31.6380   -0.5660   14.5120 C   0  0  0  0  0  0  0  0  0  0  0  0
   31.0940   -1.4530   16.8710 C   0  0  0  0  0  0  0  0  0  0  0  0
   31.3160   -1.1150   18.2460 C   0  0  0  0  0  0  0  0  0  0  0  0
   32.3890   -3.7980   18.7030 C   0  0  0  0  0  0  0  0  0  0  0  0
   30.5710   -5.6030   19.7650 C   0  0  0  0  0  0  0  0  0  0  0  0
   30.3390   -4.2430   19.8700 C   0  0  0  0  0  0  0  0  0  0  0  0
   25.2270   -4.5120   23.7490 C   0  0  0  0  0  0  0  0  0  0  0  0
   26.0300   -5.7510   24.0200 C   0  0  0  0  0  0  0  0  0  0  0  0
   26.6010   -6.0970   19.9790 O   0  0  0  0  0  0  0  0  0  0  0  0
   26.1010   -3.4250   23.4640 O   0  0  0  0  0  0  0  0  0  0  0  0
   25.7260   -2.2140   24.1110 C   0  0  0  0  0  0  0  0  0  0  0  0
   25.9870   -1.0860   23.1510 C   0  0  0  0  0  0  0  0  0  0  0  0
   27.2930   -0.2210   20.7640 O   0  0  0  0  0  0  0  0  0  0  0  0
   30.3980   -1.4410   20.4710 N   0  0  0  0  0  0  0  0  0  0  0  0
   32.0190    1.3990   21.6450 N   0  0  0  0  0  0  0  0  0  0  0  0
   33.2350    1.9210   21.1710 N   0  0  0  0  0  0  0  0  0  0  0  0
   32.2900    0.7410   19.5530 N   0  0  0  0  0  0  0  0  0  0  0  0
   31.9740    0.1020   18.3650 C   0  0  0  0  0  0  0  0  0  0  0  0
   32.3410    0.7970   16.8370 S   0  0  0  0  0  0  0  0  0  0  0  0
   30.3800   -2.6850   16.3850 C   0  0  0  0  0  0  0  0  0  0  0  0
   30.9600   -1.8890   19.4070 C   0  0  0  0  0  0  0  0  0  0  0  0
   31.2460   -3.3330   19.3450 C   0  0  0  0  0  0  0  0  0  0  0  0
   32.6280   -5.1560   18.6000 C   0  0  0  0  0  0  0  0  0  0  0  0
   31.7180   -6.0360   19.1420 C   0  0  0  0  0  0  0  0  0  0  0  0
   32.0110   -7.7420   19.0160 Cl  0  0  0  0  0  0  0  0  0  0  0  0
   27.1010   -5.8660   23.0830 O   0  0  0  0  0  0  0  0  0  0  0  0
   26.9670   -6.9650   22.1830 C   0  0  0  0  0  0  0  0  0  0  0  0
   25.9450   -6.6350   21.1230 C   0  0  0  0  0  0  0  0  0  0  0  0
   18.5700    0.6280   15.9690 Cl  0  0  0  0  0  0  0  0  0  0  0  0
   19.8520   -0.5210   16.2640 C   0  0  0  0  0  0  0  0  0  0  0  0
   20.7620   -0.7380   15.2600 C   0  0  0  0  0  0  0  0  0  0  0  0
   21.7830   -1.6460   15.4570 C   0  0  0  0  0  0  0  0  0  0  0  0
   19.9490   -1.1940   17.4650 C   0  0  0  0  0  0  0  0  0  0  0  0
   20.9910   -2.1070   17.6490 C   0  0  0  0  0  0  0  0  0  0  0  0
   21.9220   -2.3400   16.6450 C   0  0  0  0  0  0  0  0  0  0  0  0
   23.0740   -3.3210   16.8000 C   0  0  2  0  0  0  0  0  0  0  0  0
   24.4000   -2.6070   16.4990 C   0  0  0  0  0  0  0  0  0  0  0  0
   22.9430   -4.4640   15.8950 N   0  0  0  0  0  0  0  0  0  0  0  0
   22.9190   -5.7400   16.2930 C   0  0  0  0  0  0  0  0  0  0  0  0
   22.6200   -6.1010   17.4340 O   0  0  0  0  0  0  0  0  0  0  0  0
   23.3550   -6.7510   15.2300 C   0  0  2  0  0  0  0  0  0  0  0  0
   22.2340   -7.0650   14.2280 C   0  0  0  0  0  0  0  0  0  0  0  0
   22.4630   -8.5220   13.8450 C   0  0  1  0  0  0  0  0  0  0  0  0
   23.5210   -8.6390   12.8920 O   0  0  0  0  0  0  0  0  0  0  0  0
   22.8510   -9.1380   15.1800 C   0  0  0  0  0  0  0  0  0  0  0  0
   23.6740   -8.0730   15.7780 N   0  0  0  0  0  0  0  0  0  0  0  0
   24.6890   -8.1870   16.6470 C   0  0  0  0  0  0  0  0  0  0  0  0
   25.3650   -7.2170   16.9260 O   0  0  0  0  0  0  0  0  0  0  0  0
   25.0220   -9.5570   17.2220 C   0  0  2  0  0  0  0  0  0  0  0  0
   24.7140   -9.6690   18.7190 C   0  0  0  0  0  0  0  0  0  0  0  0
   24.4540  -11.1380   19.0350 C   0  0  0  0  0  0  0  0  0  0  0  0
   23.5180   -8.8210   19.1390 C   0  0  0  0  0  0  0  0  0  0  0  0
   28.6170   -9.7630   16.4850 C   0  0  0  0  0  0  0  0  0  0  0  0
   30.0820   -9.4740   16.5310 C   0  0  0  0  0  0  0  0  0  0  0  0
   27.5980   -9.1730   17.2580 C   0  0  0  0  0  0  0  0  0  0  0  0
   26.4620   -9.7640   16.8660 C   0  0  0  0  0  0  0  0  0  0  0  0
   26.7360  -10.6470   15.8880 O   0  0  0  0  0  0  0  0  0  0  0  0
   28.1360  -10.6470   15.6640 N   0  0  0  0  0  0  0  0  0  0  0  0
   27.0820   -4.2560   18.5350 C   0  0  0  0  0  0  0  0  0  0  0  0
   26.3310   -3.2320   17.8220 N   0  0  0  0  0  0  0  0  0  0  0  0
   25.6380   -3.4480   16.6920 C   0  0  0  0  0  0  0  0  0  0  0  0
   25.9880   -4.2660   15.8390 O   0  0  0  0  0  0  0  0  0  0  0  0
   22.8720   -8.6610  -23.2100 C   0  0  0  0  0  0  0  0  0  0  0  0
   17.4280  -10.1460  -25.9440 N   0  0  0  0  0  0  0  0  0  0  0  0
   17.4720  -10.8310  -24.8040 C   0  0  0  0  0  0  0  0  0  0  0  0
   17.0330  -12.2730  -24.8620 C   0  0  0  0  0  0  0  0  0  0  0  0
   17.3280  -12.9910  -23.5490 C   0  0  1  0  0  0  0  0  0  0  0  0
   16.7140  -14.3520  -23.5210 C   0  0  0  0  0  0  0  0  0  0  0  0
   16.1030  -16.3300  -22.8000 C   0  0  0  0  0  0  0  0  0  0  0  0
   15.9430  -17.5310  -21.9400 C   0  0  0  0  0  0  0  0  0  0  0  0
   18.2030  -14.3840  -18.9400 C   0  0  0  0  0  0  0  0  0  0  0  0
   18.3650  -14.5190  -17.4590 C   0  0  0  0  0  0  0  0  0  0  0  0
   18.9790  -13.6910  -19.8170 C   0  0  0  0  0  0  0  0  0  0  0  0
   18.6300  -13.9680  -21.1800 C   0  0  0  0  0  0  0  0  0  0  0  0
   21.4230  -14.7460  -21.6090 C   0  0  0  0  0  0  0  0  0  0  0  0
   23.0260  -13.0070  -23.0560 C   0  0  0  0  0  0  0  0  0  0  0  0
   21.6530  -12.8430  -23.0540 C   0  0  0  0  0  0  0  0  0  0  0  0
   21.0110   -7.9520  -26.8600 C   0  0  0  0  0  0  0  0  0  0  0  0
   22.1770   -8.3700  -27.6990 C   0  0  0  0  0  0  0  0  0  0  0  0
   23.8430   -9.3240  -24.0050 O   0  0  0  0  0  0  0  0  0  0  0  0
   20.0340   -8.9910  -26.8570 O   0  0  0  0  0  0  0  0  0  0  0  0
   18.7360   -8.5520  -27.2440 C   0  0  0  0  0  0  0  0  0  0  0  0
   17.8060   -8.7480  -26.0780 C   0  0  0  0  0  0  0  0  0  0  0  0
   17.8570  -10.3240  -23.7570 O   0  0  0  0  0  0  0  0  0  0  0  0
   18.7800  -13.0720  -23.3930 N   0  0  0  0  0  0  0  0  0  0  0  0
   16.0140  -14.9080  -24.4740 N   0  0  0  0  0  0  0  0  0  0  0  0
   15.6280  -16.1750  -24.0090 N   0  0  0  0  0  0  0  0  0  0  0  0
   16.8160  -15.1840  -22.4200 N   0  0  0  0  0  0  0  0  0  0  0  0
   17.4830  -14.7810  -21.2710 C   0  0  0  0  0  0  0  0  0  0  0  0
   16.8820  -15.1820  -19.7190 S   0  0  0  0  0  0  0  0  0  0  0  0
   20.1080  -12.8050  -19.3700 C   0  0  0  0  0  0  0  0  0  0  0  0
   19.3560  -13.5370  -22.3430 C   0  0  0  0  0  0  0  0  0  0  0  0
   20.8360  -13.7100  -22.3330 C   0  0  0  0  0  0  0  0  0  0  0  0
   22.7940  -14.9170  -21.6100 C   0  0  0  0  0  0  0  0  0  0  0  0
   23.5730  -14.0410  -22.3320 C   0  0  0  0  0  0  0  0  0  0  0  0
   25.2960  -14.2590  -22.3470 Cl  0  0  0  0  0  0  0  0  0  0  0  0
   22.5610   -9.7130  -27.4000 O   0  0  0  0  0  0  0  0  0  0  0  0
   22.7390  -10.0020  -26.0130 C   0  0  0  0  0  0  0  0  0  0  0  0
   23.7170   -9.0470  -25.3920 C   0  0  0  0  0  0  0  0  0  0  0  0
   16.6720   -1.8720  -19.8280 Cl  0  0  0  0  0  0  0  0  0  0  0  0
   17.8450   -3.1630  -19.9560 C   0  0  0  0  0  0  0  0  0  0  0  0
   18.1890   -3.8590  -18.8200 C   0  0  0  0  0  0  0  0  0  0  0  0
   19.1250   -4.8800  -18.9000 C   0  0  0  0  0  0  0  0  0  0  0  0
   18.4210   -3.4710  -21.1680 C   0  0  0  0  0  0  0  0  0  0  0  0
   19.3670   -4.4980  -21.2320 C   0  0  0  0  0  0  0  0  0  0  0  0
   19.7180   -5.2250  -20.1020 C   0  0  0  0  0  0  0  0  0  0  0  0
   20.7700   -6.3240  -20.1460 C   0  0  2  0  0  0  0  0  0  0  0  0
   20.1650   -7.7170  -19.9030 C   0  0  0  0  0  0  0  0  0  0  0  0
   21.8000   -6.1110  -19.1320 N   0  0  0  0  0  0  0  0  0  0  0  0
   22.9640   -5.4970  -19.3480 C   0  0  0  0  0  0  0  0  0  0  0  0
   23.2420   -4.8560  -20.3580 O   0  0  0  0  0  0  0  0  0  0  0  0
   23.9750   -5.6490  -18.2190 C   0  0  2  0  0  0  0  0  0  0  0  0
   24.0570   -4.3860  -17.3480 C   0  0  0  0  0  0  0  0  0  0  0  0
   25.4830   -4.4200  -16.8290 C   0  0  1  0  0  0  0  0  0  0  0  0
   25.5800   -5.4150  -15.8190 O   0  0  0  0  0  0  0  0  0  0  0  0
   26.2710   -4.8380  -18.0630 C   0  0  0  0  0  0  0  0  0  0  0  0
   25.3420   -5.7740  -18.7160 N   0  0  0  0  0  0  0  0  0  0  0  0
   25.5470   -6.7080  -19.6400 C   0  0  0  0  0  0  0  0  0  0  0  0
   24.6140   -7.4010  -19.9910 O   0  0  0  0  0  0  0  0  0  0  0  0
   26.9440   -6.9090  -20.2130 C   0  0  2  0  0  0  0  0  0  0  0  0
   26.8910   -6.7510  -21.7310 C   0  0  0  0  0  0  0  0  0  0  0  0
   28.2700   -7.0290  -22.3120 C   0  0  0  0  0  0  0  0  0  0  0  0
   26.3690   -5.3700  -22.1210 C   0  0  0  0  0  0  0  0  0  0  0  0
   27.7190  -10.4030  -19.3970 C   0  0  0  0  0  0  0  0  0  0  0  0
   27.5960  -11.8960  -19.3880 C   0  0  0  0  0  0  0  0  0  0  0  0
   26.9160   -9.4930  -20.1170 C   0  0  0  0  0  0  0  0  0  0  0  0
   27.3960   -8.2790  -19.8150 C   0  0  0  0  0  0  0  0  0  0  0  0
   28.4220   -8.4000  -18.9460 O   0  0  0  0  0  0  0  0  0  0  0  0
   28.6260   -9.7830  -18.6910 N   0  0  0  0  0  0  0  0  0  0  0  0
   22.6360   -9.5040  -21.9840 C   0  0  0  0  0  0  0  0  0  0  0  0
   21.3350   -9.2230  -21.4030 N   0  0  0  0  0  0  0  0  0  0  0  0
   21.1570   -8.8390  -20.1340 C   0  0  0  0  0  0  0  0  0  0  0  0
   21.7680   -9.3740  -19.2070 O   0  0  0  0  0  0  0  0  0  0  0  0
  1 18  1  0  0  0  0
  2 21  1  0  0  0  0
  3  4  1  0  0  0  0
  3  2  1  0  0  0  0
  5  6  1  0  0  0  0
  5  4  1  1  0  0  0
  6 24  2  0  0  0  0
  7 25  2  0  0  0  0
  8  7  1  0  0  0  0
  9 28  1  0  0  0  0
  9 11  2  0  0  0  0
 10  9  1  0  0  0  0
 11 12  1  0  0  0  0
 12 27  2  0  0  0  0
 12 30  1  0  0  0  0
 13 31  1  0  0  0  0
 14 15  1  0  0  0  0
 16 17  1  0  0  0  0
 18 37  1  0  0  0  0
 19 16  1  0  0  0  0
 19 20  1  0  0  0  0
 21 20  1  0  0  0  0
 22  3  2  0  0  0  0
 23  5  1  0  0  0  0
 25 24  1  0  0  0  0
 26  7  1  0  0  0  0
 26  6  1  0  0  0  0
 27 26  1  0  0  0  0
 28 27  1  0  0  0  0
 29 11  1  0  0  0  0
 30 23  2  0  0  0  0
 31 30  1  0  0  0  0
 31 15  2  0  0  0  0
 32 13  2  0  0  0  0
 32 33  1  0  0  0  0
 33 14  2  0  0  0  0
 34 33  1  0  0  0  0
 35 17  1  0  0  0  0
 36 35  1  0  0  0  0
 37 36  1  0  0  0  0
 38 39  1  0  0  0  0
 39 42  1  0  0  0  0
 40 41  1  0  0  0  0
 40 39  2  0  0  0  0
 41 44  2  0  0  0  0
 42 43  2  0  0  0  0
 44 45  1  0  0  0  0
 44 43  1  0  0  0  0
 45 46  1  6  0  0  0
 46 70  1  0  0  0  0
 47 48  1  0  0  0  0
 47 45  1  0  0  0  0
 48 49  2  0  0  0  0
 50 55  1  0  0  0  0
 50 48  1  1  0  0  0
 51 50  1  0  0  0  0
 52 53  1  6  0  0  0
 52 51  1  0  0  0  0
 52 54  1  0  0  0  0
 54 55  1  0  0  0  0
 55 56  1  0  0  0  0
 56 57  2  0  0  0  0
 58 56  1  1  0  0  0
 58 59  1  0  0  0  0
 59 60  1  0  0  0  0
 59 61  1  0  0  0  0
 62 63  1  0  0  0  0
 62 64  1  0  0  0  0
 65 58  1  0  0  0  0
 65 64  2  0  0  0  0
 66 65  1  0  0  0  0
 67 66  1  0  0  0  0
 67 62  2  0  0  0  0
 68  1  1  0  0  0  0
 69 68  1  0  0  0  0
 70 69  1  0  0  0  0
 71 70  2  0  0  0  0
 72139  1  0  0  0  0
 73 74  1  0  0  0  0
 74 93  2  0  0  0  0
 75 74  1  0  0  0  0
 76 75  1  6  0  0  0
 76 77  1  0  0  0  0
 76 94  1  0  0  0  0
 77 97  1  0  0  0  0
 78 97  1  0  0  0  0
 78 79  1  0  0  0  0
 80 81  1  0  0  0  0
 82100  1  0  0  0  0
 82 80  2  0  0  0  0
 83 82  1  0  0  0  0
 85 86  2  0  0  0  0
 85104  1  0  0  0  0
 86102  1  0  0  0  0
 87 90  1  0  0  0  0
 88106  1  0  0  0  0
 88 87  1  0  0  0  0
 89 72  1  0  0  0  0
 91 90  1  0  0  0  0
 91 92  1  0  0  0  0
 92 73  1  0  0  0  0
 94101  2  0  0  0  0
 95 96  1  0  0  0  0
 95 77  2  0  0  0  0
 96 78  2  0  0  0  0
 97 98  1  0  0  0  0
 98 83  2  0  0  0  0
 98 99  1  0  0  0  0
 99 80  1  0  0  0  0
101102  1  0  0  0  0
101 83  1  0  0  0  0
102 84  2  0  0  0  0
103 84  1  0  0  0  0
104103  2  0  0  0  0
105104  1  0  0  0  0
106107  1  0  0  0  0
107108  1  0  0  0  0
108 89  1  0  0  0  0
110109  1  0  0  0  0
110111  1  0  0  0  0
112111  2  0  0  0  0
113110  2  0  0  0  0
114113  1  0  0  0  0
114115  2  0  0  0  0
115112  1  0  0  0  0
116115  1  0  0  0  0
116117  1  1  0  0  0
116118  1  0  0  0  0
119118  1  0  0  0  0
120119  2  0  0  0  0
121119  1  6  0  0  0
121122  1  0  0  0  0
122123  1  0  0  0  0
123124  1  1  0  0  0
125123  1  0  0  0  0
126121  1  0  0  0  0
126125  1  0  0  0  0
127126  1  0  0  0  0
128127  2  0  0  0  0
129130  1  6  0  0  0
129136  1  0  0  0  0
129127  1  0  0  0  0
131130  1  0  0  0  0
132130  1  0  0  0  0
133134  1  0  0  0  0
133138  2  0  0  0  0
135136  2  0  0  0  0
135133  1  0  0  0  0
136137  1  0  0  0  0
137138  1  0  0  0  0
139140  1  0  0  0  0
140141  1  0  0  0  0
141117  1  0  0  0  0
141142  2  0  0  0  0
M  END
$$$$
