/Users/chinazoemeh/HopeMScP/data/ligands/bd2/BRD4_BD2_16_8WY7/BRD4_BD2_16_8WY7.pdb
 OpenBabel07172512173D

120129  0  0  1  0  0  0  0  0999 V2000
  -66.7350   28.6750    4.3230 O   0  0  0  0  0  0  0  0  0  0  0  0
  -64.4760   29.9390    5.4550 N   0  0  0  0  0  0  0  0  0  0  0  0
  -66.8820   29.2310    5.4170 C   0  0  0  0  0  0  0  0  0  0  0  0
  -70.4690   29.6800    5.5500 C   0  0  0  0  0  0  0  0  0  0  0  0
  -71.7900   28.9490    5.2450 C   0  0  0  0  0  0  0  0  0  0  0  0
  -71.9590   27.7120    6.2630 C   0  0  1  0  0  0  0  0  0  0  0  0
  -73.1730   26.9600    6.0360 O   0  0  0  0  0  0  0  0  0  0  0  0
  -70.7790   26.7520    6.2190 C   0  0  0  0  0  0  0  0  0  0  0  0
  -69.5360   27.5220    6.6080 C   0  0  0  0  0  0  0  0  0  0  0  0
  -69.2820   28.6780    5.6010 C   0  0  2  0  0  0  0  0  0  0  0  0
  -68.0510   29.3050    6.0780 N   0  0  0  0  0  0  0  0  0  0  0  0
  -65.7410   29.8420    6.2220 C   0  0  0  0  0  0  0  0  0  0  0  0
  -63.3590   30.5930    5.8780 C   0  0  0  0  0  0  0  0  0  0  0  0
  -63.4440   31.8980    6.3740 C   0  0  0  0  0  0  0  0  0  0  0  0
  -62.3290   32.5900    6.8110 C   0  0  0  0  0  0  0  0  0  0  0  0
  -62.4420   33.7220    7.2560 O   0  0  0  0  0  0  0  0  0  0  0  0
  -61.1280   32.0300    6.7300 N   0  0  0  0  0  0  0  0  0  0  0  0
  -59.9380   32.7650    7.2010 C   0  0  0  0  0  0  0  0  0  0  0  0
  -60.9960   30.7260    6.2140 C   0  0  0  0  0  0  0  0  0  0  0  0
  -62.0900   29.9710    5.7940 C   0  0  0  0  0  0  0  0  0  0  0  0
  -61.7740   28.6800    5.3130 C   0  0  0  0  0  0  0  0  0  0  0  0
  -60.9410   28.5810    4.1620 C   0  0  0  0  0  0  0  0  0  0  0  0
  -60.5360   27.3580    3.5930 C   0  0  0  0  0  0  0  0  0  0  0  0
  -59.6680   27.2850    2.4240 C   0  0  0  0  0  0  0  0  0  0  0  0
  -60.1470   26.2900    1.3430 C   0  0  0  0  0  0  0  0  0  0  0  0
  -58.3100   26.8050    2.8550 C   0  0  0  0  0  0  0  0  0  0  0  0
  -59.4320   28.5810    1.7720 O   0  0  0  0  0  0  0  0  0  0  0  0
  -60.9820   26.2060    4.2530 C   0  0  0  0  0  0  0  0  0  0  0  0
  -61.7920   26.2360    5.3870 C   0  0  0  0  0  0  0  0  0  0  0  0
  -62.1930   27.4820    5.9400 C   0  0  0  0  0  0  0  0  0  0  0  0
  -62.9810   27.6250    7.0600 O   0  0  0  0  0  0  0  0  0  0  0  0
  -63.2470   26.5130    7.8540 C   0  0  0  0  0  0  0  0  0  0  0  0
  -64.3090   25.6930    7.4990 C   0  0  0  0  0  0  0  0  0  0  0  0
  -65.0980   26.0030    6.3920 C   0  0  0  0  0  0  0  0  0  0  0  0
  -64.5960   24.5640    8.2610 C   0  0  0  0  0  0  0  0  0  0  0  0
  -63.8720   24.2590    9.4030 C   0  0  0  0  0  0  0  0  0  0  0  0
  -64.2430   22.9890   10.2420 F   0  0  0  0  0  0  0  0  0  0  0  0
  -62.7950   25.0760    9.7490 C   0  0  0  0  0  0  0  0  0  0  0  0
  -62.4820   26.2000    8.9780 C   0  0  0  0  0  0  0  0  0  0  0  0
  -61.4280   26.9560    9.4220 C   0  0  0  0  0  0  0  0  0  0  0  0
  -55.6820   18.1730   12.3830 O   0  0  0  0  0  0  0  0  0  0  0  0
  -56.9540   16.9010   10.3220 N   0  0  0  0  0  0  0  0  0  0  0  0
  -56.3720   17.1950   12.6650 C   0  0  0  0  0  0  0  0  0  0  0  0
  -55.1680   17.5880   15.6180 C   0  0  0  0  0  0  0  0  0  0  0  0
  -54.8580   18.1640   16.9990 C   0  0  0  0  0  0  0  0  0  0  0  0
  -55.9730   17.6200   17.9190 C   0  0  1  0  0  0  0  0  0  0  0  0
  -55.6640   17.8250   19.3370 O   0  0  0  0  0  0  0  0  0  0  0  0
  -57.3100   18.2700   17.5020 C   0  0  0  0  0  0  0  0  0  0  0  0
  -57.7240   17.7010   16.1210 C   0  0  0  0  0  0  0  0  0  0  0  0
  -56.6100   17.8590   15.0550 C   0  0  2  0  0  0  0  0  0  0  0  0
  -56.8440   16.9270   13.9080 N   0  0  0  0  0  0  0  0  0  0  0  0
  -56.6280   16.1900   11.5970 C   0  0  0  0  0  0  0  0  0  0  0  0
  -57.3330   16.3070    9.1420 C   0  0  0  0  0  0  0  0  0  0  0  0
  -57.7440   14.9550    9.0850 C   0  0  0  0  0  0  0  0  0  0  0  0
  -58.1800   14.3450    7.9080 C   0  0  0  0  0  0  0  0  0  0  0  0
  -58.5480   13.1690    7.9110 O   0  0  0  0  0  0  0  0  0  0  0  0
  -58.2100   15.0460    6.7840 N   0  0  0  0  0  0  0  0  0  0  0  0
  -58.6680   14.4260    5.5460 C   0  0  0  0  0  0  0  0  0  0  0  0
  -57.8150   16.3720    6.7810 C   0  0  0  0  0  0  0  0  0  0  0  0
  -57.3460   17.0450    7.9120 C   0  0  0  0  0  0  0  0  0  0  0  0
  -57.0510   18.4050    7.6220 C   0  0  0  0  0  0  0  0  0  0  0  0
  -56.0750   18.7940    6.6540 C   0  0  0  0  0  0  0  0  0  0  0  0
  -55.8320   20.1470    6.3130 C   0  0  0  0  0  0  0  0  0  0  0  0
  -54.8520   20.5980    5.3790 C   0  0  0  0  0  0  0  0  0  0  0  0
  -53.7980   21.4430    6.0940 C   0  0  0  0  0  0  0  0  0  0  0  0
  -55.5200   21.4350    4.3020 C   0  0  0  0  0  0  0  0  0  0  0  0
  -54.1120   19.5710    4.6860 O   0  0  0  0  0  0  0  0  0  0  0  0
  -56.6230   21.0880    6.9440 C   0  0  0  0  0  0  0  0  0  0  0  0
  -57.5810   20.7350    7.8870 C   0  0  0  0  0  0  0  0  0  0  0  0
  -57.8350   19.4060    8.2080 C   0  0  0  0  0  0  0  0  0  0  0  0
  -58.7730   18.9720    9.1230 O   0  0  0  0  0  0  0  0  0  0  0  0
  -59.5680   19.8380    9.7830 C   0  0  0  0  0  0  0  0  0  0  0  0
  -60.8480   19.9960    9.2840 C   0  0  0  0  0  0  0  0  0  0  0  0
  -61.2530   19.3010    8.1750 C   0  0  0  0  0  0  0  0  0  0  0  0
  -61.7200   20.8730    9.9200 C   0  0  0  0  0  0  0  0  0  0  0  0
  -61.2820   21.5800   11.0440 C   0  0  0  0  0  0  0  0  0  0  0  0
  -62.0760   22.3830   11.5720 F   0  0  0  0  0  0  0  0  0  0  0  0
  -59.9850   21.4080   11.5580 C   0  0  0  0  0  0  0  0  0  0  0  0
  -59.1050   20.5300   10.9120 C   0  0  0  0  0  0  0  0  0  0  0  0
  -57.8210   20.3710   11.4360 C   0  0  0  0  0  0  0  0  0  0  0  0
  -24.5140    9.5370   -3.9350 O   0  0  0  0  0  0  0  0  0  0  0  0
  -24.0120   12.2290   -3.4870 N   0  0  0  0  0  0  0  0  0  0  0  0
  -23.5450    9.7840   -3.2190 C   0  0  0  0  0  0  0  0  0  0  0  0
  -21.8730    6.6680   -1.9180 C   0  0  0  0  0  0  0  0  0  0  0  0
  -21.3570    5.3390   -2.3490 C   0  0  0  0  0  0  0  0  0  0  0  0
  -20.9750    5.5220   -3.8200 C   0  0  1  0  0  0  0  0  0  0  0  0
  -20.2990    4.3760   -4.2920 O   0  0  0  0  0  0  0  0  0  0  0  0
  -22.2150    5.7320   -4.6670 C   0  0  0  0  0  0  0  0  0  0  0  0
  -22.6880    7.1180   -4.4110 C   0  0  0  0  0  0  0  0  0  0  0  0
  -22.8710    7.3950   -2.9030 C   0  0  2  0  0  0  0  0  0  0  0  0
  -22.7220    8.8520   -2.6870 N   0  0  0  0  0  0  0  0  0  0  0  0
  -23.1680   11.1960   -2.8090 C   0  0  0  0  0  0  0  0  0  0  0  0
  -23.8660   13.5630   -3.2730 C   0  0  0  0  0  0  0  0  0  0  0  0
  -23.1850   14.0550   -2.1310 C   0  0  0  0  0  0  0  0  0  0  0  0
  -23.0140   15.4190   -1.8800 C   0  0  0  0  0  0  0  0  0  0  0  0
  -22.4050   15.7970   -0.8620 O   0  0  0  0  0  0  0  0  0  0  0  0
  -23.5190   16.3100   -2.7640 N   0  0  0  0  0  0  0  0  0  0  0  0
  -23.3410   17.7730   -2.4930 C   0  0  0  0  0  0  0  0  0  0  0  0
  -24.2160   15.8580   -3.9230 C   0  0  0  0  0  0  0  0  0  0  0  0
  -24.4140   14.4870   -4.2050 C   0  0  0  0  0  0  0  0  0  0  0  0
  -25.1200   14.1990   -5.4080 C   0  0  0  0  0  0  0  0  0  0  0  0
  -26.4170   14.6840   -5.5700 C   0  0  0  0  0  0  0  0  0  0  0  0
  -27.1530   14.4700   -6.7530 C   0  0  0  0  0  0  0  0  0  0  0  0
  -28.4440   14.9530   -6.8730 C   0  0  0  0  0  0  0  0  0  0  0  0
  -29.4020   13.7930   -7.2090 C   0  0  0  0  0  0  0  0  0  0  0  0
  -28.4590   15.9900   -7.9980 C   0  0  0  0  0  0  0  0  0  0  0  0
  -28.8740   15.5930   -5.6430 O   0  0  0  0  0  0  0  0  0  0  0  0
  -26.5910   13.7720   -7.8300 C   0  0  0  0  0  0  0  0  0  0  0  0
  -25.2930   13.3020   -7.6990 C   0  0  0  0  0  0  0  0  0  0  0  0
  -24.5720   13.5160   -6.5040 C   0  0  0  0  0  0  0  0  0  0  0  0
  -23.3170   13.1030   -6.3130 O   0  0  0  0  0  0  0  0  0  0  0  0
  -22.6310   12.4900   -7.3290 C   0  0  0  0  0  0  0  0  0  0  0  0
  -21.7020   13.2530   -8.0350 C   0  0  0  0  0  0  0  0  0  0  0  0
  -21.5040   14.5900   -7.7290 C   0  0  0  0  0  0  0  0  0  0  0  0
  -20.9700   12.6260   -9.0440 C   0  0  0  0  0  0  0  0  0  0  0  0
  -21.1730   11.2640   -9.3270 C   0  0  0  0  0  0  0  0  0  0  0  0
  -20.4960   10.6720  -10.2950 F   0  0  0  0  0  0  0  0  0  0  0  0
  -22.1000   10.5050   -8.6200 C   0  0  0  0  0  0  0  0  0  0  0  0
  -22.8320   11.1040   -7.5940 C   0  0  0  0  0  0  0  0  0  0  0  0
  -23.7560   10.3080   -6.8810 C   0  0  0  0  0  0  0  0  0  0  0  0
  1  3  2  0  0  0  0
  2 13  1  0  0  0  0
  2 12  1  0  0  0  0
  3 11  1  0  0  0  0
  3 12  1  0  0  0  0
  4 10  1  0  0  0  0
  5  4  1  0  0  0  0
  5  6  1  0  0  0  0
  6  7  1  6  0  0  0
  8  6  1  0  0  0  0
  8  9  1  0  0  0  0
 10 11  1  1  0  0  0
 10  9  1  0  0  0  0
 13 14  2  0  0  0  0
 14 15  1  0  0  0  0
 15 16  2  0  0  0  0
 17 15  1  0  0  0  0
 17 18  1  0  0  0  0
 19 17  1  0  0  0  0
 20 13  1  0  0  0  0
 20 19  2  0  0  0  0
 21 20  1  0  0  0  0
 21 30  1  0  0  0  0
 22 21  2  0  0  0  0
 23 22  1  0  0  0  0
 23 28  2  0  0  0  0
 24 26  1  0  0  0  0
 24 23  1  0  0  0  0
 25 24  1  0  0  0  0
 27 24  1  0  0  0  0
 28 29  1  0  0  0  0
 29 30  2  0  0  0  0
 30 31  1  0  0  0  0
 31 32  1  0  0  0  0
 32 39  1  0  0  0  0
 33 32  2  0  0  0  0
 33 35  1  0  0  0  0
 34 33  1  0  0  0  0
 35 36  2  0  0  0  0
 36 38  1  0  0  0  0
 36 37  1  0  0  0  0
 39 40  1  0  0  0  0
 39 38  2  0  0  0  0
 41 43  2  0  0  0  0
 42 52  1  0  0  0  0
 43 51  1  0  0  0  0
 44 45  1  0  0  0  0
 45 46  1  0  0  0  0
 46 47  1  1  0  0  0
 48 46  1  0  0  0  0
 49 48  1  0  0  0  0
 50 51  1  6  0  0  0
 50 44  1  0  0  0  0
 50 49  1  0  0  0  0
 52 43  1  0  0  0  0
 53 42  1  0  0  0  0
 54 53  2  0  0  0  0
 55 56  2  0  0  0  0
 55 54  1  0  0  0  0
 57 55  1  0  0  0  0
 58 57  1  0  0  0  0
 59 57  1  0  0  0  0
 59 60  2  0  0  0  0
 60 53  1  0  0  0  0
 61 60  1  0  0  0  0
 61 70  1  0  0  0  0
 62 61  2  0  0  0  0
 63 62  1  0  0  0  0
 63 68  2  0  0  0  0
 64 65  1  0  0  0  0
 64 63  1  0  0  0  0
 66 64  1  0  0  0  0
 67 64  1  0  0  0  0
 68 69  1  0  0  0  0
 69 70  2  0  0  0  0
 70 71  1  0  0  0  0
 71 72  1  0  0  0  0
 72 79  1  0  0  0  0
 73 72  2  0  0  0  0
 73 75  1  0  0  0  0
 74 73  1  0  0  0  0
 75 76  2  0  0  0  0
 76 78  1  0  0  0  0
 76 77  1  0  0  0  0
 79 80  1  0  0  0  0
 79 78  2  0  0  0  0
 81 83  2  0  0  0  0
 82 93  1  0  0  0  0
 82 92  1  0  0  0  0
 83 92  1  0  0  0  0
 83 91  1  0  0  0  0
 85 84  1  0  0  0  0
 86 87  1  6  0  0  0
 86 85  1  0  0  0  0
 88 89  1  0  0  0  0
 88 86  1  0  0  0  0
 89 90  1  0  0  0  0
 90 91  1  6  0  0  0
 90 84  1  0  0  0  0
 93 94  2  0  0  0  0
 94 95  1  0  0  0  0
 95 96  2  0  0  0  0
 97 98  1  0  0  0  0
 97 95  1  0  0  0  0
 99 97  1  0  0  0  0
100 99  2  0  0  0  0
100 93  1  0  0  0  0
101100  1  0  0  0  0
102101  1  0  0  0  0
103102  2  0  0  0  0
104103  1  0  0  0  0
104107  1  0  0  0  0
105104  1  0  0  0  0
106104  1  0  0  0  0
108109  2  0  0  0  0
108103  1  0  0  0  0
109110  1  0  0  0  0
110111  1  0  0  0  0
110101  2  0  0  0  0
112111  1  0  0  0  0
113114  1  0  0  0  0
113112  2  0  0  0  0
115113  1  0  0  0  0
116115  2  0  0  0  0
116118  1  0  0  0  0
117116  1  0  0  0  0
118119  2  0  0  0  0
119112  1  0  0  0  0
119120  1  0  0  0  0
M  END
$$$$
