/Users/chinazoemeh/HopeMScP/data/ligands/BRD4-BD1_BRD4-BD1_108_6U8M/BRD4-BD1_BRD4-BD1_108_6U8M.pdb
 OpenBabel07142514423D

 24 22  0  0  1  0  0  0  0  0999 V2000
  -38.8820    3.2120    0.6970 O   0  0  0  0  0  0  0  0  0  0  0  0
  -37.7920    2.6220    0.6060 C   0  0  0  0  0  0  0  0  0  0  0  0
  -36.6360    2.9950    1.5030 C   0  0  0  0  0  0  0  0  0  0  0  0
  -37.6020    1.6100   -0.3180 N   0  0  0  0  0  0  0  0  0  0  0  0
  -38.6400    1.2000   -1.2270 C   0  0  0  0  0  0  0  0  0  0  0  0
  -39.3500   -0.0870   -0.8380 C   0  0  0  0  0  0  0  0  0  0  0  0
  -40.2520   -0.5510   -1.9790 C   0  0  0  0  0  0  0  0  0  0  0  0
  -40.8230   -1.8890   -1.6070 C   0  0  0  0  0  0  0  0  0  0  0  0
  -41.8520   -2.4500   -2.6230 C   0  0  2  0  0  0  0  0  0  0  0  0
  -43.1970   -1.9290   -2.4620 N   0  0  0  0  0  0  0  0  0  0  0  0
  -41.9480   -3.9410   -2.4220 C   0  0  0  0  0  0  0  0  0  0  0  0
  -42.6320   -4.4210   -1.5150 O   0  0  0  0  0  0  0  0  0  0  0  0
  -39.7400  -21.0260   -7.7190 O   0  0  0  0  0  0  0  0  0  0  0  0
  -39.5060  -19.8420   -8.0240 C   0  0  0  0  0  0  0  0  0  0  0  0
  -40.3020  -19.1270   -9.1090 C   0  0  0  0  0  0  0  0  0  0  0  0
  -38.5040  -19.1720   -7.3850 N   0  0  0  0  0  0  0  0  0  0  0  0
  -37.7170  -19.7820   -6.3380 C   0  0  0  0  0  0  0  0  0  0  0  0
  -37.7000  -18.7970   -5.1620 C   0  0  0  0  0  0  0  0  0  0  0  0
  -37.1320  -19.4530   -3.9440 C   0  0  0  0  0  0  0  0  0  0  0  0
  -37.9750  -19.0510   -2.7710 C   0  0  0  0  0  0  0  0  0  0  0  0
  -37.3060  -17.8430   -2.1070 C   0  0  2  0  0  0  0  0  0  0  0  0
  -36.0210  -18.1270   -1.5020 N   0  0  0  0  0  0  0  0  0  0  0  0
  -38.2930  -17.3160   -1.0840 C   0  0  0  0  0  0  0  0  0  0  0  0
  -39.4940  -17.6050   -1.0580 O   0  0  0  0  0  0  0  0  0  0  0  0
  2  1  2  0  0  0  0
  2  3  1  0  0  0  0
  4  2  1  0  0  0  0
  5  6  1  0  0  0  0
  5  4  1  0  0  0  0
  7  8  1  0  0  0  0
  7  6  1  0  0  0  0
  9 10  1  1  0  0  0
  9 11  1  0  0  0  0
  9  8  1  0  0  0  0
 11 12  2  0  0  0  0
 14 13  2  0  0  0  0
 14 16  1  0  0  0  0
 15 14  1  0  0  0  0
 16 17  1  0  0  0  0
 17 18  1  0  0  0  0
 18 19  1  0  0  0  0
 19 20  1  0  0  0  0
 20 21  1  0  0  0  0
 21 22  1  1  0  0  0
 21 23  1  0  0  0  0
 23 24  2  0  0  0  0
M  END
$$$$
