/Users/chinazoemeh/HopeMScP/data/ligands/BRD4-BD1_BRD4-BD1_36_6CZV/BRD4-BD1_BRD4-BD1_36_6CZV.pdb
 OpenBabel07142514433D

  8  6  0  0  0  0  0  0  0  0999 V2000
   -9.8910    8.0520  -23.0840 C   0  0  0  0  0  0  0  0  0  0  0  0
   -9.8290    7.9140  -21.6670 O   0  0  0  0  0  0  0  0  0  0  0  0
   -9.9070    9.3200  -23.8530 C   0  0  0  0  0  0  0  0  0  0  0  0
   -9.8010    8.8350  -25.2010 O   0  0  0  0  0  0  0  0  0  0  0  0
    0.7670    8.9960    3.3480 C   0  0  0  0  0  0  0  0  0  0  0  0
   -0.3510    9.1020    4.2750 O   0  0  0  0  0  0  0  0  0  0  0  0
    0.2710    8.6150    1.9500 C   0  0  0  0  0  0  0  0  0  0  0  0
    1.1100    7.7340    1.1380 O   0  0  0  0  0  0  0  0  0  0  0  0
  1  2  1  0  0  0  0
  3  1  1  0  0  0  0
  4  3  1  0  0  0  0
  5  6  1  0  0  0  0
  7  5  1  0  0  0  0
  8  7  1  0  0  0  0
M  END
$$$$
