/Users/chinazoemeh/HopeMScP/data/ligands/BRD4-BD1_BRD4-BD1_98_7W3D/BRD4-BD1_BRD4-BD1_98_7W3D.pdb
 OpenBabel07142514423D

 29 31  0  0  1  0  0  0  0  0999 V2000
    8.8700   -4.6370   -5.7650 C   0  0  0  0  0  0  0  0  0  0  0  0
    8.4440   -5.9140   -5.3340 O   0  0  0  0  0  0  0  0  0  0  0  0
    9.6170   -6.6780   -5.1210 C   0  0  0  0  0  0  0  0  0  0  0  0
    9.8350   -7.0580   -3.6660 C   0  0  2  0  0  0  0  0  0  0  0  0
   11.2380   -7.6680   -3.6200 C   0  0  0  0  0  0  0  0  0  0  0  0
    8.7890   -7.9910   -3.1240 N   0  0  0  0  0  0  0  0  0  0  0  0
    8.4340   -7.8940   -1.8480 C   0  0  0  0  0  0  0  0  0  0  0  0
    9.1470   -7.0250   -1.0890 N   0  0  0  0  0  4  0  0  0  0  0  0
    7.3920   -8.6410   -1.3150 C   0  0  0  0  0  0  0  0  0  0  0  0
    7.1290   -8.4940    0.0220 C   0  0  0  0  0  0  0  0  0  0  0  0
    7.9090   -7.6050    0.7840 C   0  0  0  0  0  0  0  0  0  0  0  0
    7.6910   -7.3590    2.0570 N   0  0  0  0  0  0  0  0  0  0  0  0
    8.0000   -8.4400    3.3070 S   0  0  0  0  0  0  0  0  0  0  0  0
    7.5550   -7.6700    4.5270 O   0  0  0  0  0  0  0  0  0  0  0  0
    9.5020   -8.7950    3.2720 O   0  0  0  0  0  0  0  0  0  0  0  0
    6.8560   -9.7390    3.1860 N   0  0  0  0  0  0  0  0  0  0  0  0
    6.1540  -10.0700    4.4630 C   0  0  0  0  0  0  0  0  0  0  0  0
    7.3930  -10.8390    2.3790 C   0  0  0  0  0  0  0  0  0  0  0  0
    8.9310   -6.8550    0.1990 C   0  0  0  0  0  0  0  0  0  0  0  0
    9.6110   -6.0020    0.9850 N   0  0  0  0  0  0  0  0  0  0  0  0
   10.9100   -5.6970    0.8300 C   0  0  0  0  0  0  0  0  0  0  0  0
   11.8560   -6.3480    0.0310 C   0  0  0  0  0  0  0  0  0  0  0  0
   13.1330   -5.9250   -0.0230 C   0  0  0  0  0  0  0  0  0  0  0  0
   14.2090   -6.3710   -0.7130 N   0  0  0  0  0  0  0  0  0  0  0  0
   15.2870   -5.5910   -0.4690 N   0  0  0  0  0  0  0  0  0  0  0  0
   14.8620   -4.6590    0.3980 N   0  0  0  0  0  0  0  0  0  0  0  0
   13.5540   -4.8530    0.6480 C   0  0  2  0  0  0  0  0  0  0  0  0
   12.6980   -4.1820    1.4290 C   0  0  0  0  0  0  0  0  0  0  0  0
   11.3690   -4.5980    1.5590 C   0  0  0  0  0  0  0  0  0  0  0  0
  1  2  1  0  0  0  0
  2  3  1  0  0  0  0
  3  4  1  0  0  0  0
  4  5  1  6  0  0  0
  4  6  1  0  0  0  0
  6  7  1  0  0  0  0
  7  9  1  0  0  0  0
  7  8  2  0  0  0  0
  8 19  2  0  0  0  0
  9 10  1  0  0  0  0
 10 11  2  0  0  0  0
 11 12  1  0  0  0  0
 12 13  1  0  0  0  0
 13 14  2  0  0  0  0
 15 13  2  0  0  0  0
 16 13  1  0  0  0  0
 16 17  1  0  0  0  0
 18 16  1  0  0  0  0
 19 11  1  0  0  0  0
 19 20  1  0  0  0  0
 21 20  1  0  0  0  0
 21 29  1  0  0  0  0
 22 21  2  0  0  0  0
 23 22  1  0  0  0  0
 23 27  1  0  0  0  0
 24 25  1  0  0  0  0
 24 23  2  0  0  0  0
 25 26  2  0  0  0  0
 26 27  1  0  0  0  0
 27 28  1  1  0  0  0
 28 29  2  0  0  0  0
M  END
$$$$
