/Users/chinazoemeh/HopeMScP/data/ligands/BRD4-BD1_BRD4-BD1_74_6G0H/BRD4-BD1_BRD4-BD1_74_6G0H.pdb
 OpenBabel07142514433D

 10  9  0  0  0  0  0  0  0  0999 V2000
  -20.7750  128.8500    1.5160 C   0  0  0  0  0  0  0  0  0  0  0  0
  -19.4220  129.0310    1.1810 O   0  0  0  0  0  0  0  0  0  0  0  0
  -20.8510  127.4180    2.0640 C   0  0  0  0  0  0  0  0  0  0  0  0
  -20.7750  127.5850    3.4440 O   0  0  0  0  0  0  0  0  0  0  0  0
  -21.0890  129.4730    2.1900 H   0  0  0  0  0  0  0  0  0  0  0  0
  -21.3720  128.9390    0.7560 H   0  0  0  0  0  0  0  0  0  0  0  0
  -19.3910  129.7330    0.7020 H   0  0  0  0  0  0  0  0  0  0  0  0
  -21.6750  126.9920    1.7790 H   0  0  0  0  0  0  0  0  0  0  0  0
  -20.1250  126.8820    1.7070 H   0  0  0  0  0  0  0  0  0  0  0  0
  -20.7840  126.8020    3.7760 H   0  0  0  0  0  0  0  0  0  0  0  0
  1  3  1  0  0  0  0
  1  5  1  0  0  0  0
  2  1  1  0  0  0  0
  3  4  1  0  0  0  0
  4 10  1  0  0  0  0
  6  1  1  0  0  0  0
  7  2  1  0  0  0  0
  8  3  1  0  0  0  0
  9  3  1  0  0  0  0
M  END
$$$$
