/Users/chinazoemeh/HopeMScP/data/ligands/BRD4-BD1_BRD4-BD1_26_7X6T/BRD4-BD1_BRD4-BD1_26_7X6T.pdb
 OpenBabel07142514433D

 49 52  0  0  1  0  0  0  0  0999 V2000
   -8.2200   -6.4690   -0.0390 C   0  0  0  0  0  0  0  0  0  0  0  0
   -5.7780   -7.5700   -0.7460 C   0  0  0  0  0  0  0  0  0  0  0  0
   -7.4100   -7.0140    0.9370 C   0  0  0  0  0  0  0  0  0  0  0  0
   -7.5220   -5.8290    2.9920 C   0  0  0  0  0  0  0  0  0  0  0  0
   -7.0660   -3.5510    4.4930 C   0  0  0  0  0  0  0  0  0  0  0  0
   -7.9330   -4.5270    4.9560 C   0  0  0  0  0  0  0  0  0  0  0  0
   -8.1530   -5.6680    4.2110 C   0  0  0  0  0  0  0  0  0  0  0  0
  -11.8620   -3.4550   -1.1770 C   0  0  0  0  0  0  0  0  0  0  0  0
  -13.6750   -7.7230    4.0280 C   0  0  0  0  0  0  0  0  0  0  0  0
  -12.3740   -7.1400    3.4840 C   0  0  2  0  0  0  0  0  0  0  0  0
  -11.6290   -6.4610    4.6210 C   0  0  0  0  0  0  0  0  0  0  0  0
  -11.7060   -5.7990    1.4270 C   0  0  0  0  0  0  0  0  0  0  0  0
  -10.4470   -6.3560    1.2750 C   0  0  0  0  0  0  0  0  0  0  0  0
   -9.5890   -5.8990    0.2480 C   0  0  0  0  0  0  0  0  0  0  0  0
   -7.8110   -6.4890   -1.3650 C   0  0  0  0  0  0  0  0  0  0  0  0
   -6.5930   -7.0320   -1.7240 C   0  0  0  0  0  0  0  0  0  0  0  0
   -6.1900   -7.5580    0.5740 C   0  0  0  0  0  0  0  0  0  0  0  0
   -6.6580   -4.8480    2.5190 C   0  0  0  0  0  0  0  0  0  0  0  0
   -6.4250   -3.7020    3.2780 C   0  0  0  0  0  0  0  0  0  0  0  0
  -12.0820   -4.8000    0.5130 C   0  0  0  0  0  0  0  0  0  0  0  0
  -11.2200   -2.7520   -2.3730 C   0  0  0  0  0  0  0  0  0  0  0  0
  -10.9020   -7.3180    5.5150 N   0  0  0  0  0  0  0  0  0  0  0  0
  -12.6730   -6.1670    2.4440 N   0  0  0  0  0  0  0  0  0  0  0  0
   -9.9820   -4.9520   -0.6070 N   0  0  0  0  0  0  0  0  0  0  0  0
  -11.2530   -4.4210   -0.4320 N   0  0  0  0  0  0  0  0  0  0  0  0
  -13.2180   -4.0780    0.3850 N   0  0  0  0  0  0  0  0  0  0  0  0
  -13.0530   -3.2480   -0.6720 N   0  0  0  0  0  0  0  0  0  0  0  0
  -11.6380   -5.2750    4.7760 O   0  0  0  0  0  0  0  0  0  0  0  0
   -7.8120   -7.0140    2.2760 O   0  0  0  0  0  0  0  0  0  0  0  0
   -4.8150   -7.9840   -1.0090 H   0  0  0  0  0  0  0  0  0  0  0  0
   -6.8900   -2.6630    5.0870 H   0  0  0  0  0  0  0  0  0  0  0  0
   -8.4250   -4.4040    5.9120 H   0  0  0  0  0  0  0  0  0  0  0  0
   -8.8330   -6.4290    4.5730 H   0  0  0  0  0  0  0  0  0  0  0  0
  -14.1020   -8.4010    3.2950 H   0  0  0  0  0  0  0  0  0  0  0  0
  -14.3760   -6.9180    4.2290 H   0  0  0  0  0  0  0  0  0  0  0  0
  -13.4730   -8.2640    4.9480 H   0  0  0  0  0  0  0  0  0  0  0  0
  -11.7640   -7.9340    3.0740 H   0  0  0  0  0  0  0  0  0  0  0  0
  -10.1130   -7.1340    1.9550 H   0  0  0  0  0  0  0  0  0  0  0  0
   -8.4590   -6.0780   -2.1310 H   0  0  0  0  0  0  0  0  0  0  0  0
   -6.2790   -7.0330   -2.7570 H   0  0  0  0  0  0  0  0  0  0  0  0
   -5.5440   -7.9700    1.3360 H   0  0  0  0  0  0  0  0  0  0  0  0
   -6.1610   -4.9760    1.5640 H   0  0  0  0  0  0  0  0  0  0  0  0
   -5.7520   -2.9350    2.9160 H   0  0  0  0  0  0  0  0  0  0  0  0
  -11.9030   -2.7770   -3.2160 H   0  0  0  0  0  0  0  0  0  0  0  0
  -10.2950   -3.2620   -2.6400 H   0  0  0  0  0  0  0  0  0  0  0  0
  -11.0040   -1.7230   -2.1130 H   0  0  0  0  0  0  0  0  0  0  0  0
  -10.9050   -8.3100    5.3710 H   0  0  0  0  0  0  0  0  0  0  0  0
  -10.3930   -6.9250    6.2820 H   0  0  0  0  0  0  0  0  0  0  0  0
  -13.5770   -5.7360    2.4300 H   0  0  0  0  0  0  0  0  0  0  0  0
  1 14  1  0  0  0  0
  1  3  1  0  0  0  0
  2 17  1  0  0  0  0
  3 29  1  0  0  0  0
  4  7  1  0  0  0  0
  5  6  1  0  0  0  0
  5 31  1  0  0  0  0
  6 32  1  0  0  0  0
  7 33  1  0  0  0  0
  7  6  2  0  0  0  0
  8 27  2  0  0  0  0
  8 25  1  0  0  0  0
  9 35  1  0  0  0  0
  9 36  1  0  0  0  0
 10 37  1  6  0  0  0
 10  9  1  0  0  0  0
 10 11  1  0  0  0  0
 11 28  2  0  0  0  0
 11 22  1  0  0  0  0
 12 23  1  0  0  0  0
 13 12  2  0  0  0  0
 13 38  1  0  0  0  0
 14 13  1  0  0  0  0
 15  1  2  0  0  0  0
 16 15  1  0  0  0  0
 16  2  2  0  0  0  0
 17  3  2  0  0  0  0
 17 41  1  0  0  0  0
 18  4  2  0  0  0  0
 18 19  1  0  0  0  0
 19  5  2  0  0  0  0
 20 12  1  0  0  0  0
 21 46  1  0  0  0  0
 21  8  1  0  0  0  0
 22 48  1  0  0  0  0
 23 10  1  0  0  0  0
 24 25  1  0  0  0  0
 24 14  2  0  0  0  0
 25 20  1  0  0  0  0
 26 20  2  0  0  0  0
 27 26  1  0  0  0  0
 29  4  1  0  0  0  0
 30  2  1  0  0  0  0
 34  9  1  0  0  0  0
 39 15  1  0  0  0  0
 40 16  1  0  0  0  0
 42 18  1  0  0  0  0
 43 19  1  0  0  0  0
 44 21  1  0  0  0  0
 45 21  1  0  0  0  0
 47 22  1  0  0  0  0
 49 23  1  0  0  0  0
M  END
$$$$
