/Users/chinazoemeh/HopeMScP/data/ligands/BRD4-BD1_BRD4-BD1_50_5VZS/BRD4-BD1_BRD4-BD1_50_5VZS.pdb
 OpenBabel07142514433D

 12  9  0  0  0  0  0  0  0  0999 V2000
   11.5240  -11.8780   23.7150 C   0  0  0  0  0  0  0  0  0  0  0  0
   10.1360  -12.1890   23.9120 O   0  0  0  0  0  0  0  0  0  0  0  0
   12.3620  -12.3390   24.8980 C   0  0  0  0  0  0  0  0  0  0  0  0
   12.2620  -13.7580   25.0230 O   0  0  0  0  0  0  0  0  0  0  0  0
  -14.8360    9.3540   37.9240 C   0  0  0  0  0  0  0  0  0  0  0  0
  -13.6280    8.6560   38.2480 O   0  0  0  0  0  0  0  0  0  0  0  0
  -15.9610    8.3280   37.8780 C   0  0  0  0  0  0  0  0  0  0  0  0
  -15.6240    7.3150   36.9220 O   0  0  0  0  0  0  0  0  0  0  0  0
    2.6990   12.0920   55.9590 C   0  0  0  0  0  0  0  0  0  0  0  0
    3.9000   12.8450   55.7150 O   0  0  0  0  0  0  0  0  0  0  0  0
    1.4860   13.0200   55.9610 C   0  0  0  0  0  0  0  0  0  0  0  0
    0.2750   12.3340   56.3270 O   0  0  0  0  0  0  0  0  0  0  0  0
  1  2  1  0  0  0  0
  1  3  1  0  0  0  0
  3  4  1  0  0  0  0
  5  6  1  0  0  0  0
  7  5  1  0  0  0  0
  8  7  1  0  0  0  0
  9 11  1  0  0  0  0
 10  9  1  0  0  0  0
 11 12  1  0  0  0  0
M  END
$$$$
