/Users/chinazoemeh/HopeMScP/data/ligands/BRD4-BD1_BRD4-BD1_79_7MR9/BRD4-BD1_BRD4-BD1_79_7MR9.pdb
 OpenBabel07142514423D

 12  9  0  0  0  0  0  0  0  0999 V2000
    7.1230   10.0900   19.6890 C   0  0  0  0  0  0  0  0  0  0  0  0
    7.6900   10.6600   20.8430 O   0  0  0  0  0  0  0  0  0  0  0  0
    6.2060   11.2020   19.2320 C   0  0  0  0  0  0  0  0  0  0  0  0
    5.8140   10.8100   17.9490 O   0  0  0  0  0  0  0  0  0  0  0  0
   24.6090   -2.4080    5.9140 C   0  0  0  0  0  0  0  0  0  0  0  0
   25.0050   -3.4580    6.8030 O   0  0  0  0  0  0  0  0  0  0  0  0
   23.6320   -1.5380    6.6620 C   0  0  0  0  0  0  0  0  0  0  0  0
   22.4610   -2.2760    7.0310 O   0  0  0  0  0  0  0  0  0  0  0  0
    7.9110   -4.7590   -4.7870 C   0  0  0  0  0  0  0  0  0  0  0  0
    7.3310   -5.5690   -5.8070 O   0  0  0  0  0  0  0  0  0  0  0  0
    9.4020   -4.7050   -5.0460 C   0  0  0  0  0  0  0  0  0  0  0  0
    9.7460   -5.5450   -6.1920 O   0  0  0  0  0  0  0  0  0  0  0  0
  1  2  1  0  0  0  0
  3  1  1  0  0  0  0
  4  3  1  0  0  0  0
  5  7  1  0  0  0  0
  5  6  1  0  0  0  0
  7  8  1  0  0  0  0
 10  9  1  0  0  0  0
 11  9  1  0  0  0  0
 12 11  1  0  0  0  0
M  END
$$$$
