/Users/chinazoemeh/HopeMScP/data/ligands/BRD4-BD1_BRD4-BD1_93_6G0G/BRD4-BD1_BRD4-BD1_93_6G0G.pdb
 OpenBabel07142514423D

  4  3  0  0  0  0  0  0  0  0999 V2000
  -20.4930  128.1150    1.0320 C   0  0  0  0  0  0  0  0  0  0  0  0
  -19.4720  129.0530    1.1980 O   0  0  0  0  0  0  0  0  0  0  0  0
  -21.2620  127.9960    2.3700 C   0  0  0  0  0  0  0  0  0  0  0  0
  -20.3730  127.5440    3.3350 O   0  0  0  0  0  0  0  0  0  0  0  0
  1  2  1  0  0  0  0
  1  3  1  0  0  0  0
  3  4  1  0  0  0  0
M  END
$$$$
