/Users/chinazoemeh/HopeMScP/data/ligands/BRD4-BD1_BRD4-BD1_80_7MRA/BRD4-BD1_BRD4-BD1_80_7MRA.pdb
 OpenBabel07142514423D

 24 26  0  0  0  0  0  0  0  0999 V2000
   -8.2420   -6.0580   -0.6530 C   0  0  0  0  0  0  0  0  0  0  0  0
   -6.0530   -6.5950    0.2820 C   0  0  0  0  0  0  0  0  0  0  0  0
   -5.6620   -7.1640   -0.9410 C   0  0  0  0  0  0  0  0  0  0  0  0
   -7.8360   -6.6330   -1.8610 C   0  0  0  0  0  0  0  0  0  0  0  0
   -6.9090   -6.0750   -5.2610 C   0  0  0  0  0  0  0  0  0  0  0  0
   -5.4880   -5.4990   -5.3930 C   0  0  0  0  0  0  0  0  0  0  0  0
   -9.9220   -4.4320   -1.3960 C   0  0  0  0  0  0  0  0  0  0  0  0
  -12.0940   -4.2350   -0.4620 C   0  0  0  0  0  0  0  0  0  0  0  0
  -11.8040   -5.3070    0.4250 C   0  0  0  0  0  0  0  0  0  0  0  0
  -12.7810   -5.7450    1.3510 C   0  0  0  0  0  0  0  0  0  0  0  0
  -12.4990   -6.7870    2.2430 C   0  0  0  0  0  0  0  0  0  0  0  0
  -11.2480   -7.4170    2.2090 C   0  0  0  0  0  0  0  0  0  0  0  0
  -10.2640   -7.0090    1.3010 C   0  0  0  0  0  0  0  0  0  0  0  0
  -10.5240   -5.9450    0.3910 C   0  0  0  0  0  0  0  0  0  0  0  0
   -9.5560   -5.4900   -0.5480 C   0  0  0  0  0  0  0  0  0  0  0  0
  -11.4050   -2.7350   -2.2930 C   0  0  0  0  0  0  0  0  0  0  0  0
   -7.3290   -6.0300    0.4310 C   0  0  0  0  0  0  0  0  0  0  0  0
   -6.5560   -7.1820   -2.0160 C   0  0  0  0  0  0  0  0  0  0  0  0
  -11.1410   -3.8280   -1.3630 N   0  0  0  0  0  0  0  0  0  0  0  0
   -6.1080   -7.7710   -3.1600 N   0  0  0  0  0  0  0  0  0  0  0  0
  -13.2090   -3.6450   -0.4360 O   0  0  0  0  0  0  0  0  0  0  0  0
   -6.0560   -8.6570   -5.5740 O   0  0  0  0  0  0  0  0  0  0  0  0
   -8.3700   -8.2090   -4.4140 O   0  0  0  0  0  0  0  0  0  0  0  0
   -6.9040   -7.7860   -4.6350 S   0  0  0  0  0  0  0  0  0  0  0  0
  1 15  1  0  0  0  0
  1 17  1  0  0  0  0
  2 17  2  0  0  0  0
  3  2  1  0  0  0  0
  4  1  2  0  0  0  0
  5 24  1  0  0  0  0
  6  5  1  0  0  0  0
  7 19  1  0  0  0  0
  7 15  2  0  0  0  0
  8 21  2  0  0  0  0
  8  9  1  0  0  0  0
  9 10  1  0  0  0  0
 10 11  2  0  0  0  0
 12 11  1  0  0  0  0
 13 12  2  0  0  0  0
 14  9  2  0  0  0  0
 14 13  1  0  0  0  0
 15 14  1  0  0  0  0
 16 19  1  0  0  0  0
 18  4  1  0  0  0  0
 18  3  2  0  0  0  0
 19  8  1  0  0  0  0
 20 18  1  0  0  0  0
 22 24  2  0  0  0  0
 24 23  2  0  0  0  0
 24 20  1  0  0  0  0
M  END
$$$$
