/Users/chinazoemeh/HopeMScP/data/ligands/BRD4-BD1_BRD4-BD1_101_6ULV/BRD4-BD1_BRD4-BD1_101_6ULV.pdb
 OpenBabel07142514423D

  7  0  0  0  0  0  0  0  0  0999 V2000
  -74.2270   32.3180   13.4500 I   0  0  0  0  0  0  0  0  0  0  0  0
  -64.3950   22.1710   16.0740 I   0  0  0  0  0  0  0  0  0  0  0  0
    0.9760   30.3930   13.2570 I   0  0  0  0  0  0  0  0  0  0  0  0
  -26.2940   38.6050    7.7920 I   0  0  0  0  0  0  0  0  0  0  0  0
  -46.9200   34.3820    4.2130 I   0  0  0  0  0  0  0  0  0  0  0  0
  -43.0250   36.5370   -4.2820 I   0  0  0  0  0  0  0  0  0  0  0  0
  -29.4010   45.9860    2.5780 I   0  0  0  0  0  0  0  0  0  0  0  0
M  END
$$$$
