/Users/chinazoemeh/HopeMScP/data/ligands/BRD4-BD1_BRD4-BD1_94_6PRT/BRD4-BD1_BRD4-BD1_94_6PRT.pdb
 OpenBabel07142514423D

 50 21  0  0  1  0  0  0  0  0999 V2000
  -14.3310    4.7810    0.0570 C   0  0  0  0  0  0  0  0  0  0  0  0
  -14.2110    4.8170    0.0070 C   0  0  0  0  0  0  0  0  0  0  0  0
  -12.8660    3.2730    1.4460 C   0  0  0  0  0  0  0  0  0  0  0  0
  -12.7980    3.3480    1.3940 C   0  0  0  0  0  0  0  0  0  0  0  0
  -12.2330    5.6890    0.6410 C   0  0  0  0  0  0  0  0  0  0  0  0
  -12.1200    5.6970    0.5320 C   0  0  0  0  0  0  0  0  0  0  0  0
  -12.8230    6.6010   -0.4890 C   0  0  0  0  0  0  0  0  0  0  0  0
  -12.6830    6.5490   -0.6550 C   0  0  0  0  0  0  0  0  0  0  0  0
  -12.0270    6.4530   -1.8310 C   0  0  0  0  0  0  0  0  0  0  0  0
  -12.0310    6.1820   -2.0270 C   0  0  0  0  0  0  0  0  0  0  0  0
  -10.7090    7.1570   -1.8330 C   0  0  1  0  0  0  0  0  0  0  0  0
  -10.5290    6.3400   -2.0670 C   0  0  2  0  0  0  0  0  0  0  0  0
   -8.3370    7.1890   -0.9970 C   0  0  0  0  0  0  0  0  0  0  0  0
   -8.3650    6.9120   -1.0240 C   0  0  0  0  0  0  0  0  0  0  0  0
  -14.2570    6.1690   -0.5060 C   0  0  0  0  0  0  0  0  0  0  0  0
  -14.1320    6.2050   -0.5650 C   0  0  0  0  0  0  0  0  0  0  0  0
  -13.1290    4.5080    0.7340 N   0  0  0  0  0  0  0  0  0  0  0  0
  -13.0350    4.5400    0.6710 N   0  0  0  0  0  0  0  0  0  0  0  0
  -15.2660    4.0160   -0.0060 O   0  0  0  0  0  0  0  0  0  0  0  0
  -15.1770    4.0810   -0.0120 O   0  0  0  0  0  0  0  0  0  0  0  0
   -9.6450    6.4520   -1.2810 O   0  0  0  0  0  0  0  0  0  0  0  0
   -9.8870    6.8880   -0.9370 O   0  0  0  0  0  0  0  0  0  0  0  0
  -10.4990    8.2600   -2.2580 O   0  0  0  0  0  0  0  0  0  0  0  0
   -9.8480    5.9320   -2.9870 O   0  0  0  0  0  0  0  0  0  0  0  0
  -13.5100    3.0720    2.1430 H   0  0  0  0  0  0  0  0  0  0  0  0
  -13.4410    3.1760    2.0990 H   0  0  0  0  0  0  0  0  0  0  0  0
  -12.0080    3.2500    1.8980 H   0  0  0  0  0  0  0  0  0  0  0  0
  -11.9370    3.3180    1.8410 H   0  0  0  0  0  0  0  0  0  0  0  0
  -12.8640    2.4830    0.8850 H   0  0  0  0  0  0  0  0  0  0  0  0
  -12.8150    2.5440    0.8510 H   0  0  0  0  0  0  0  0  0  0  0  0
  -12.2090    6.1650    1.4870 H   0  0  0  0  0  0  0  0  0  0  0  0
  -12.1020    6.2180    1.3500 H   0  0  0  0  0  0  0  0  0  0  0  0
  -11.3290    5.4140    0.4210 H   0  0  0  0  0  0  0  0  0  0  0  0
  -11.2170    5.3970    0.3410 H   0  0  0  0  0  0  0  0  0  0  0  0
  -12.9100    7.5450   -0.2800 H   0  0  0  0  0  0  0  0  0  0  0  0
  -12.6440    7.5100   -0.5290 H   0  0  0  0  0  0  0  0  0  0  0  0
  -11.8590    5.5280   -2.0690 H   0  0  0  0  0  0  0  0  0  0  0  0
  -12.2280    5.2740   -2.3050 H   0  0  0  0  0  0  0  0  0  0  0  0
  -12.5240    6.7700   -2.6010 H   0  0  0  0  0  0  0  0  0  0  0  0
  -12.3910    6.6990   -2.7640 H   0  0  0  0  0  0  0  0  0  0  0  0
   -7.6520    6.6640   -0.5540 H   0  0  0  0  0  0  0  0  0  0  0  0
   -7.9460    6.0590   -1.2170 H   0  0  0  0  0  0  0  0  0  0  0  0
   -8.4150    7.9710   -0.4280 H   0  0  0  0  0  0  0  0  0  0  0  0
   -7.9080    7.2040   -0.2200 H   0  0  0  0  0  0  0  0  0  0  0  0
   -7.8760    7.5340   -1.7780 H   0  0  0  0  0  0  0  0  0  0  0  0
   -7.9980    7.4950   -1.7080 H   0  0  0  0  0  0  0  0  0  0  0  0
  -14.6000    6.2030   -1.4120 H   0  0  0  0  0  0  0  0  0  0  0  0
  -14.5430    6.2570   -1.4420 H   0  0  0  0  0  0  0  0  0  0  0  0
  -14.7940    6.7890    0.0120 H   0  0  0  0  0  0  0  0  0  0  0  0
  -14.5950    6.8510   -0.0090 H   0  0  0  0  0  0  0  0  0  0  0  0
  3 26  1  0  0  0  0
  4 27  1  0  0  0  0
  5 32  1  0  0  0  0
 11 23  1  6  0  0  0
 11 22  1  0  0  0  0
 12 24  1  6  0  0  0
 12 11  1  0  0  0  0
 12 21  1  0  0  0  0
 13 44  1  0  0  0  0
 14 41  1  0  0  0  0
 15 50  1  0  0  0  0
 20  1  2  0  0  0  0
 21 22  1  0  0  0  0
 30  3  1  0  0  0  0
 33  6  1  0  0  0  0
 36  7  1  0  0  0  0
 37 10  1  0  0  0  0
 39 10  1  0  0  0  0
 42 14  1  0  0  0  0
 46 13  1  0  0  0  0
 47 16  1  0  0  0  0
M  END
$$$$
