/Users/chinazoemeh/HopeMScP/data/ligands/BRD4-BD1_BRD4-BD1_13_7JKX/BRD4-BD1_BRD4-BD1_13_7JKX.pdb
 OpenBabel07142514423D

 39 43  0  0  0  0  0  0  0  0999 V2000
    9.6110   -7.4460    0.9040 C   0  0  0  0  0  0  0  0  0  0  0  0
   10.7620   -6.6510    1.1090 C   0  0  0  0  0  0  0  0  0  0  0  0
   11.6120   -6.3530    0.0450 C   0  0  0  0  0  0  0  0  0  0  0  0
   11.3450   -6.8270   -1.2340 C   0  0  0  0  0  0  0  0  0  0  0  0
   10.2200   -7.6070   -1.4370 C   0  0  0  0  0  0  0  0  0  0  0  0
    9.3400   -7.9390   -0.3970 C   0  0  0  0  0  0  0  0  0  0  0  0
    8.2850   -8.7290   -0.9710 C   0  0  0  0  0  0  0  0  0  0  0  0
    8.5840   -8.8650   -2.2700 C   0  0  0  0  0  0  0  0  0  0  0  0
   10.3180   -8.0370   -3.9500 C   0  0  0  0  0  0  0  0  0  0  0  0
    9.9530   -6.6670   -4.5420 C   0  0  0  0  0  0  0  0  0  0  0  0
   10.2640   -6.4620   -5.8790 C   0  0  0  0  0  0  0  0  0  0  0  0
    9.8730   -5.3290   -6.4800 C   0  0  0  0  0  0  0  0  0  0  0  0
    9.2010   -4.3630   -5.7960 C   0  0  0  0  0  0  0  0  0  0  0  0
    8.9240   -4.6010   -4.4550 C   0  0  0  0  0  0  0  0  0  0  0  0
   11.8550   -8.1930   -3.9220 C   0  0  0  0  0  0  0  0  0  0  0  0
   13.6730   -9.5260   -3.4320 C   0  0  0  0  0  0  0  0  0  0  0  0
   14.5480   -8.5670   -3.8540 C   0  0  0  0  0  0  0  0  0  0  0  0
   14.0690   -7.3710   -4.3010 C   0  0  0  0  0  0  0  0  0  0  0  0
   12.6880   -7.1710   -4.3280 C   0  0  0  0  0  0  0  0  0  0  0  0
    9.7940   -9.1390   -4.9140 C   0  0  0  0  0  0  0  0  0  0  0  0
    9.1360   -6.3870    4.2640 C   0  0  0  0  0  0  0  0  0  0  0  0
    7.7000   -5.8820    4.2470 C   0  0  0  0  0  0  0  0  0  0  0  0
    9.2770   -5.7360   -3.8410 N   0  0  0  0  0  0  0  0  0  0  0  0
    9.7440   -8.2140   -2.6040 N   0  0  0  0  0  0  0  0  0  0  0  0
   12.3230   -9.3620   -3.4950 N   0  0  0  0  0  0  0  0  0  0  0  0
    8.7760   -7.7970    1.9560 N   0  0  0  0  0  0  0  0  0  0  0  0
   12.8750   -5.6060    0.2810 C   0  0  0  0  0  0  0  0  0  0  0  0
   14.0420   -6.1430   -0.2080 C   0  0  0  0  0  0  0  0  0  0  0  0
   15.2600   -5.4970   -0.0230 C   0  0  0  0  0  0  0  0  0  0  0  0
   15.3240   -4.3550    0.6230 C   0  0  0  0  0  0  0  0  0  0  0  0
   12.9090   -4.4930    0.9950 C   0  0  0  0  0  0  0  0  0  0  0  0
   16.6670   -7.3430   -0.8030 C   0  0  0  0  0  0  0  0  0  0  0  0
    9.2350   -7.9850    3.4790 S   0  0  0  0  0  0  0  0  0  0  0  0
    8.2710   -8.8480    4.0750 O   0  0  0  0  0  0  0  0  0  0  0  0
   10.6180   -8.3950    3.5100 O   0  0  0  0  0  0  0  0  0  0  0  0
   16.4590   -5.9650   -0.5370 N   0  0  0  0  0  0  0  0  0  0  0  0
   14.1690   -3.8580    1.1510 N   0  0  0  0  0  0  0  0  0  0  0  0
   14.2440   -2.6430    1.9400 C   0  0  0  0  0  0  0  0  0  0  0  0
   16.4080   -3.7190    0.7230 O   0  0  0  0  0  0  0  0  0  0  0  0
  1  2  1  0  0  0  0
  1 26  1  0  0  0  0
  3 27  1  0  0  0  0
  3  2  2  0  0  0  0
  4  3  1  0  0  0  0
  5  4  2  0  0  0  0
  5  6  1  0  0  0  0
  6  1  2  0  0  0  0
  7  6  1  0  0  0  0
  8  7  2  0  0  0  0
  9 15  1  0  0  0  0
  9 24  1  0  0  0  0
 10  9  1  0  0  0  0
 10 23  1  0  0  0  0
 11 10  2  0  0  0  0
 12 11  1  0  0  0  0
 12 13  2  0  0  0  0
 13 14  1  0  0  0  0
 14 23  2  0  0  0  0
 15 25  1  0  0  0  0
 17 16  1  0  0  0  0
 18 17  2  0  0  0  0
 19 18  1  0  0  0  0
 19 15  2  0  0  0  0
 20  9  1  0  0  0  0
 22 21  1  0  0  0  0
 24  8  1  0  0  0  0
 24  5  1  0  0  0  0
 25 16  2  0  0  0  0
 26 33  1  0  0  0  0
 27 31  2  0  0  0  0
 28 29  2  0  0  0  0
 28 27  1  0  0  0  0
 29 30  1  0  0  0  0
 30 39  2  0  0  0  0
 30 37  1  0  0  0  0
 31 37  1  0  0  0  0
 32 36  1  0  0  0  0
 33 35  2  0  0  0  0
 33 34  2  0  0  0  0
 33 21  1  0  0  0  0
 36 29  1  0  0  0  0
 37 38  1  0  0  0  0
M  END
$$$$
