/Users/chinazoemeh/HopeMScP/data/ligands/BRD4-BD1_BRD4-BD1_91_6KEK/BRD4-BD1_BRD4-BD1_91_6KEK.pdb
 OpenBabel07142514433D

 21 14  0  0  0  0  0  0  0  0999 V2000
  -10.4090   -3.1200   87.6030 C   0  0  0  0  0  0  0  0  0  0  0  0
  -11.6330   -2.9940   87.7520 O   0  0  0  0  0  0  0  0  0  0  0  0
   -9.8260   -4.2120   87.5340 O   0  0  0  0  0  0  0  0  0  0  0  0
  -24.1690  -10.9700   90.0780 C   0  0  0  0  0  0  0  0  0  0  0  0
  -23.1370  -10.7770   90.7270 O   0  0  0  0  0  0  0  0  0  0  0  0
  -25.2930  -11.1060   90.5710 O   0  0  0  0  0  0  0  0  0  0  0  0
  -26.3510   10.0700   98.8490 C   0  0  0  0  0  0  0  0  0  0  0  0
  -25.4190    9.4950   99.3910 O   0  0  0  0  0  0  0  0  0  0  0  0
  -27.0310   10.9430   99.3930 O   0  0  0  0  0  0  0  0  0  0  0  0
  -31.2290   -7.4800   81.2440 C   0  0  0  0  0  0  0  0  0  0  0  0
  -31.4440   -6.2810   81.4260 O   0  0  0  0  0  0  0  0  0  0  0  0
  -32.0370   -8.2480   80.7120 O   0  0  0  0  0  0  0  0  0  0  0  0
  -20.9740   17.6550   97.5240 C   0  0  0  0  0  0  0  0  0  0  0  0
  -21.5140   16.5910   97.7950 O   0  0  0  0  0  0  0  0  0  0  0  0
  -19.7960   17.7560   97.1670 O   0  0  0  0  0  0  0  0  0  0  0  0
   -8.9620  -14.5380   89.2590 C   0  0  0  0  0  0  0  0  0  0  0  0
   -8.1030  -13.6630   89.1210 O   0  0  0  0  0  0  0  0  0  0  0  0
  -10.1360  -14.3400   89.5970 O   0  0  0  0  0  0  0  0  0  0  0  0
  -24.0210   20.8280   98.3370 C   0  0  0  0  0  0  0  0  0  0  0  0
  -25.0110   20.8990   99.0750 O   0  0  0  0  0  0  0  0  0  0  0  0
  -23.9000   20.0640   97.3690 O   0  0  0  0  0  0  0  0  0  0  0  0
  1  2  2  0  0  0  0
  3  1  1  0  0  0  0
  4  6  1  0  0  0  0
  4  5  2  0  0  0  0
  7  8  2  0  0  0  0
  7  9  1  0  0  0  0
 10 11  2  0  0  0  0
 12 10  1  0  0  0  0
 13 14  2  0  0  0  0
 15 13  1  0  0  0  0
 16 18  2  0  0  0  0
 17 16  1  0  0  0  0
 19 20  2  0  0  0  0
 21 19  1  0  0  0  0
M  END
$$$$
