/Users/chinazoemeh/HopeMScP/data/ligands/BRD4-BD1_BRD4-BD1_76_6KEC/BRD4-BD1_BRD4-BD1_76_6KEC.pdb
 OpenBabel07142514423D

 12  8  0  0  0  0  0  0  0  0999 V2000
  -11.4370  -18.1830   17.9110 C   0  0  0  0  0  0  0  0  0  0  0  0
  -10.8510  -17.1050   17.9490 O   0  0  0  0  0  0  0  0  0  0  0  0
  -12.6210  -18.3120   17.6000 O   0  0  0  0  0  0  0  0  0  0  0  0
  -24.1620   13.9290    9.2260 C   0  0  0  0  0  0  0  0  0  0  0  0
  -23.0310   14.3190    9.5040 O   0  0  0  0  0  0  0  0  0  0  0  0
  -24.5460   12.7560    9.2940 O   0  0  0  0  0  0  0  0  0  0  0  0
   -2.6490    9.5760    6.3660 C   0  0  0  0  0  0  0  0  0  0  0  0
   -3.1780    9.1250    5.3460 O   0  0  0  0  0  0  0  0  0  0  0  0
   -3.1510    9.5390    7.4970 O   0  0  0  0  0  0  0  0  0  0  0  0
   -7.1390  -23.0470    2.0610 C   0  0  0  0  0  0  0  0  0  0  0  0
   -7.7940  -23.2790    1.0420 O   0  0  0  0  0  0  0  0  0  0  0  0
   -6.0320  -22.5030    2.0620 O   0  0  0  0  0  0  0  0  0  0  0  0
  1  2  2  0  0  0  0
  3  1  1  0  0  0  0
  4  6  1  0  0  0  0
  4  5  2  0  0  0  0
  7  9  2  0  0  0  0
  8  7  1  0  0  0  0
 10 12  2  0  0  0  0
 11 10  1  0  0  0  0
M  END
$$$$
