/Users/chinazoemeh/HopeMScP/data/ligands/BRD4-BD1_BRD4-BD1_32_7JKY/BRD4-BD1_BRD4-BD1_32_7JKY.pdb
 OpenBabel07142514423D

 88 67  0  0  1  0  0  0  0  0999 V2000
   13.0180   14.8450    5.4990 C   0  0  0  0  0  0  0  0  0  0  0  0
   12.9590   14.8100    5.5600 C   0  0  0  0  0  0  0  0  0  0  0  0
   14.1960   15.5900    5.6690 C   0  0  0  0  0  0  0  0  0  0  0  0
   14.1770   15.5070    5.6860 C   0  0  0  0  0  0  0  0  0  0  0  0
   14.9860   15.8570    4.5310 C   0  0  0  0  0  0  0  0  0  0  0  0
   14.8640   15.8920    4.5090 C   0  0  0  0  0  0  0  0  0  0  0  0
   14.5730   15.3620    3.2830 C   0  0  0  0  0  0  0  0  0  0  0  0
   14.2730   15.5930    3.2650 C   0  0  0  0  0  0  0  0  0  0  0  0
   13.3900   14.6500    3.1080 C   0  0  0  0  0  0  0  0  0  0  0  0
   13.0780   14.9050    3.1530 C   0  0  0  0  0  0  0  0  0  0  0  0
   12.6090   14.4050    4.2400 C   0  0  0  0  0  0  0  0  0  0  0  0
   12.4070   14.5320    4.3050 C   0  0  0  0  0  0  0  0  0  0  0  0
   11.2650   13.8040    4.0370 C   0  0  0  0  0  0  0  0  0  0  0  0
   11.0720   13.8980    4.1010 C   0  0  0  0  0  0  0  0  0  0  0  0
   10.4680   14.3160    2.9820 C   0  0  0  0  0  0  0  0  0  0  0  0
   10.2920   14.3080    3.0020 C   0  0  0  0  0  0  0  0  0  0  0  0
    9.2010   13.8090    2.7320 C   0  0  0  0  0  0  0  0  0  0  0  0
    9.0440   13.7540    2.7630 C   0  0  0  0  0  0  0  0  0  0  0  0
    8.6590   12.7710    3.5600 C   0  0  0  0  0  0  0  0  0  0  0  0
    8.5210   12.7730    3.6040 C   0  0  0  0  0  0  0  0  0  0  0  0
    9.4940   12.3160    4.5850 N   0  0  0  0  0  0  0  0  0  0  0  0
    9.3050   12.4070    4.6880 N   0  0  0  0  0  0  0  0  0  0  0  0
   10.7510   12.8470    4.8440 C   0  0  0  0  0  0  0  0  0  0  0  0
   10.5610   12.9700    4.9470 C   0  0  0  0  0  0  0  0  0  0  0  0
    8.3890   14.3150    1.7270 N   0  0  0  0  0  0  0  0  0  0  0  0
    8.2990   14.1790    1.6820 N   0  0  0  0  0  0  0  0  0  0  0  0
    8.9270   15.0270    0.5900 C   0  0  0  0  0  0  0  0  0  0  0  0
    8.7230   15.2250    0.7760 C   0  0  0  0  0  0  0  0  0  0  0  0
    7.8380   15.6970   -0.2360 C   0  0  2  0  0  0  0  0  0  0  0  0
    9.7040   14.6100   -0.2080 C   0  0  0  0  0  0  0  0  0  0  0  0
    8.4270   16.4650   -1.4020 C   0  0  0  0  0  0  0  0  0  0  0  0
   10.0480   15.5620   -1.3360 C   0  0  0  0  0  0  0  0  0  0  0  0
    9.2560   15.6080   -2.2420 N   0  0  0  0  0  0  0  0  0  0  0  0
    8.8320   15.9810   -2.0360 N   0  0  0  0  0  0  0  0  0  0  0  0
   10.3950   15.0500   -1.4760 C   0  0  0  0  0  0  0  0  0  0  0  0
    7.9670   16.7240   -1.1140 C   0  0  0  0  0  0  0  0  0  0  0  0
    9.8680   14.2160   -0.3030 C   0  0  0  0  0  0  0  0  0  0  0  0
    7.5530   15.8870    0.0810 C   0  0  0  0  0  0  0  0  0  0  0  0
    9.0270   11.2240    5.4420 C   0  0  0  0  0  0  0  0  0  0  0  0
    8.7740   11.3910    5.6020 C   0  0  0  0  0  0  0  0  0  0  0  0
    7.5470   12.2250    3.3750 O   0  0  0  0  0  0  0  0  0  0  0  0
    7.4270   12.2290    3.4380 O   0  0  0  0  0  0  0  0  0  0  0  0
   16.1950   16.6190    4.3300 C   0  0  0  0  0  0  0  0  0  0  0  0
   16.0660   16.6260    4.2180 C   0  0  0  0  0  0  0  0  0  0  0  0
   16.4870   16.5360    3.0180 C   0  0  0  0  0  0  0  0  0  0  0  0
   16.1660   16.7040    2.8700 C   0  0  0  0  0  0  0  0  0  0  0  0
   15.5270   15.7870    2.3500 N   0  0  0  0  0  0  0  0  0  0  0  0
   15.1010   16.0840    2.2720 N   0  0  0  0  0  0  0  0  0  0  0  0
   14.6390   16.0980    6.9000 N   0  0  0  0  0  0  0  0  0  0  0  0
   14.7400   15.7580    6.9810 N   0  0  0  0  0  0  0  0  0  0  0  0
   13.7450   16.3290    8.2160 S   0  0  0  0  0  0  0  0  0  0  0  0
   13.8840   15.9980    8.3440 S   0  0  0  0  0  0  0  0  0  0  0  0
   13.5840   14.7770    9.0280 C   0  0  0  0  0  0  0  0  0  0  0  0
   13.6650   14.3940    9.0380 C   0  0  0  0  0  0  0  0  0  0  0  0
   14.9440   14.2350    9.4610 C   0  0  0  0  0  0  0  0  0  0  0  0
   15.0020   13.7460    9.2520 C   0  0  0  0  0  0  0  0  0  0  0  0
   12.4090   16.7570    7.8670 O   0  0  0  0  0  0  0  0  0  0  0  0
   12.6100   16.5160    7.9360 O   0  0  0  0  0  0  0  0  0  0  0  0
   14.5030   17.2090    9.0500 O   0  0  0  0  0  0  0  0  0  0  0  0
   14.6940   16.7390    9.2410 O   0  0  0  0  0  0  0  0  0  0  0  0
   15.4140   15.6550    0.8980 C   0  0  0  0  0  0  0  0  0  0  0  0
   14.8510   15.9180    0.8570 C   0  0  0  0  0  0  0  0  0  0  0  0
   16.8280   15.8590    0.2740 C   0  0  0  0  0  0  0  0  0  0  0  0
   13.5270   16.6590    0.5430 C   0  0  2  0  0  0  0  0  0  0  0  0
   14.9710   14.2530    0.4760 C   0  0  0  0  0  0  0  0  0  0  0  0
   16.0070   16.5490    0.0710 C   0  0  0  0  0  0  0  0  0  0  0  0
   14.3650   16.6380    0.2910 C   0  0  0  0  0  0  0  0  0  0  0  0
   14.7240   14.4090    0.5030 C   0  0  0  0  0  0  0  0  0  0  0  0
   15.5150   13.1610    1.0400 N   0  0  0  0  0  0  0  0  0  0  0  0
   16.9070   15.7110   -0.4330 N   0  0  0  0  0  0  0  0  0  0  0  0
   15.1190   11.9370    0.6250 C   0  0  0  0  0  0  0  0  0  0  0  0
   17.8900   16.2630   -1.1580 C   0  0  0  0  0  0  0  0  0  0  0  0
   14.1830   11.8020   -0.3820 C   0  0  0  0  0  0  0  0  0  0  0  0
   18.0200   17.6220   -1.3720 C   0  0  0  0  0  0  0  0  0  0  0  0
   13.7120   12.9550   -0.9730 C   0  0  0  0  0  0  0  0  0  0  0  0
   17.0820   18.4650   -0.8250 C   0  0  0  0  0  0  0  0  0  0  0  0
   14.1030   14.1850   -0.5440 C   0  0  0  0  0  0  0  0  0  0  0  0
   16.0530   17.9200   -0.1010 C   0  0  0  0  0  0  0  0  0  0  0  0
   14.2420   16.7880   -1.0850 C   0  0  0  0  0  0  0  0  0  0  0  0
   13.8380   13.9770   -0.4640 C   0  0  0  0  0  0  0  0  0  0  0  0
   13.3050   17.6690   -1.6060 C   0  0  0  0  0  0  0  0  0  0  0  0
   13.7140   12.6220   -0.7290 C   0  0  0  0  0  0  0  0  0  0  0  0
   12.4630   18.3430   -0.7750 C   0  0  0  0  0  0  0  0  0  0  0  0
   14.4500   11.7130   -0.0310 C   0  0  0  0  0  0  0  0  0  0  0  0
   12.5540   18.0950    0.5650 C   0  0  0  0  0  0  0  0  0  0  0  0
   15.3030   12.1910    0.9150 C   0  0  0  0  0  0  0  0  0  0  0  0
   13.4550   17.2200    1.0890 N   0  0  0  0  0  0  0  0  0  0  0  0
   15.3920   13.5040    1.2430 N   0  0  0  0  0  0  0  0  0  0  0  0
  1  4  2  0  0  0  0
  3 49  1  0  0  0  0
  6  3  2  0  0  0  0
  7  6  1  0  0  0  0
  9 10  1  0  0  0  0
  9  8  1  0  0  0  0
 10 11  1  0  0  0  0
 12  1  1  0  0  0  0
 13 12  1  0  0  0  0
 14 23  2  0  0  0  0
 15 14  1  0  0  0  0
 17 16  3  0  0  0  0
 18 19  2  0  0  0  0
 19 22  1  0  0  0  0
 21 24  3  0  0  0  0
 22 39  1  0  0  0  0
 25 18  1  0  0  0  0
 28 25  2  0  0  0  0
 29 38  1  1  0  0  0
 29 28  1  0  0  0  0
 30 27  1  0  0  0  0
 31 36  1  0  0  0  0
 33 34  1  0  0  0  0
 33 32  1  0  0  0  0
 34 31  1  0  0  0  0
 35 32  1  0  0  0  0
 35 30  1  0  0  0  0
 36 29  1  0  0  0  0
 37 30  2  0  0  0  0
 41 20  2  0  0  0  0
 45 44  3  0  0  0  0
 47 46  1  0  0  0  0
 48 47  1  0  0  0  0
 48  7  1  0  0  0  0
 51 59  1  0  0  0  0
 52 53  1  0  0  0  0
 52 60  1  0  0  0  0
 54 55  1  0  0  0  0
 56 55  1  0  0  0  0
 58 51  2  0  0  0  0
 59 60  1  0  0  0  0
 61 47  1  0  0  0  0
 62 61  1  0  0  0  0
 64 67  1  1  0  0  0
 64 87  1  0  0  0  0
 65 88  1  0  0  0  0
 66 63  1  0  0  0  0
 67 62  1  0  0  0  0
 69 88  1  0  0  0  0
 70 63  1  0  0  0  0
 71 86  1  0  0  0  0
 72 70  1  0  0  0  0
 73 84  1  0  0  0  0
 74 72  2  0  0  0  0
 74 76  1  0  0  0  0
 75 82  1  0  0  0  0
 75 80  2  0  0  0  0
 76 78  2  0  0  0  0
 77 68  3  0  0  0  0
 79 64  1  0  0  0  0
 81 79  1  0  0  0  0
 81 83  1  0  0  0  0
 82 73  1  0  0  0  0
 83 85  2  0  0  0  0
 84 71  1  0  0  0  0
 85 87  1  0  0  0  0
 86 69  1  0  0  0  0
M  END
$$$$
