/Users/chinazoemeh/HopeMScP/data/ligands/BRD4-BD1_BRD4-BD1_12_7MR8/BRD4-BD1_BRD4-BD1_12_7MR8.pdb
 OpenBabel07142514423D

  8  6  0  0  0  0  0  0  0  0999 V2000
    3.0250   -6.7670   12.4710 C   0  0  0  0  0  0  0  0  0  0  0  0
    1.9770   -5.8670   12.0870 O   0  0  0  0  0  0  0  0  0  0  0  0
    2.5670   -8.2110   12.2920 C   0  0  0  0  0  0  0  0  0  0  0  0
    1.4190   -8.4490   13.1140 O   0  0  0  0  0  0  0  0  0  0  0  0
   -4.8880    9.8610    8.9550 C   0  0  0  0  0  0  0  0  0  0  0  0
   -5.4520   11.0010    9.6140 O   0  0  0  0  0  0  0  0  0  0  0  0
   -4.0020    9.0970    9.9330 C   0  0  0  0  0  0  0  0  0  0  0  0
   -2.8770    9.9000   10.3080 O   0  0  0  0  0  0  0  0  0  0  0  0
  2  1  1  0  0  0  0
  3  1  1  0  0  0  0
  3  4  1  0  0  0  0
  5  6  1  0  0  0  0
  5  7  1  0  0  0  0
  7  8  1  0  0  0  0
M  END
$$$$
