/Users/chinazoemeh/HopeMScP/data/ligands/BRD4-BD1_BRD4-BD1_82_5M3A/BRD4-BD1_BRD4-BD1_82_5M3A.pdb
 OpenBabel07142514433D

  8  6  0  0  0  0  0  0  0  0999 V2000
   12.7940   46.8510    6.0830 C   0  0  0  0  0  0  0  0  0  0  0  0
   12.4070   47.9150    6.9300 O   0  0  0  0  0  0  0  0  0  0  0  0
   13.6610   45.8500    6.8750 C   0  0  0  0  0  0  0  0  0  0  0  0
   14.8880   46.4580    7.2630 O   0  0  0  0  0  0  0  0  0  0  0  0
   31.2850   24.9260    1.7010 C   0  0  0  0  0  0  0  0  0  0  0  0
   32.0870   24.2220    2.6320 O   0  0  0  0  0  0  0  0  0  0  0  0
   32.1690   25.4590    0.5530 C   0  0  0  0  0  0  0  0  0  0  0  0
   31.4370   26.4010   -0.2150 O   0  0  0  0  0  0  0  0  0  0  0  0
  1  3  1  0  0  0  0
  1  2  1  0  0  0  0
  3  4  1  0  0  0  0
  5  6  1  0  0  0  0
  7  5  1  0  0  0  0
  8  7  1  0  0  0  0
M  END
$$$$
