/Users/chinazoemeh/HopeMScP/data/ligands/BRD4-BD1_BRD4-BD1_87_7WWZ/BRD4-BD1_BRD4-BD1_87_7WWZ.pdb
 OpenBabel07142514423D

 31 34  0  0  0  0  0  0  0  0999 V2000
   -5.9010   -7.2170   20.7540 C   0  0  0  0  0  0  0  0  0  0  0  0
   -0.5540   -2.2910   23.7310 C   0  0  0  0  0  0  0  0  0  0  0  0
   -5.3020   -5.8780   21.0150 C   0  0  0  0  0  0  0  0  0  0  0  0
   -5.2100   -4.9290   19.9730 C   0  0  0  0  0  0  0  0  0  0  0  0
   -1.9770   -0.2860   23.4350 C   0  0  0  0  0  0  0  0  0  0  0  0
   -4.5850   -3.7160   20.1480 C   0  0  0  0  0  0  0  0  0  0  0  0
   -4.0130   -3.4480   21.3920 C   0  0  0  0  0  0  0  0  0  0  0  0
   -2.8990   -2.6130   23.0560 C   0  0  0  0  0  0  0  0  0  0  0  0
   -1.9980   -1.7460   23.8850 C   0  0  0  0  0  0  0  0  0  0  0  0
   -0.9170    0.5280   24.1520 C   0  0  0  0  0  0  0  0  0  0  0  0
    0.4110   -1.3470   24.4360 C   0  0  0  0  0  0  0  0  0  0  0  0
   -3.2370   -2.3500   21.8190 N   0  0  0  0  0  0  0  0  0  0  0  0
   -3.4640   -3.7900   23.5110 N   0  0  0  0  0  0  0  0  0  0  0  0
   -5.2440   -8.3450   21.2300 C   0  0  0  0  0  0  0  0  0  0  0  0
   -7.5400   -8.6270   19.6800 N   0  0  0  0  0  0  0  0  0  0  0  0
   -5.0280  -10.8400   21.4320 C   0  0  0  0  0  0  0  0  0  0  0  0
   -5.7410   -9.6100   20.9580 C   0  0  0  0  0  0  0  0  0  0  0  0
    0.3640   -0.0370   23.8870 O   0  0  0  0  0  0  0  0  0  0  0  0
   -3.2950   -4.4360   24.8200 C   0  0  0  0  0  0  0  0  0  0  0  0
   -4.3880   -4.0380   25.7710 C   0  0  0  0  0  0  0  0  0  0  0  0
   -5.6160   -4.6040   25.2840 O   0  0  0  0  0  0  0  0  0  0  0  0
   -6.7010   -4.4540   26.1230 C   0  0  0  0  0  0  0  0  0  0  0  0
   -6.9520   -3.2210   26.4930 F   0  0  0  0  0  0  0  0  0  0  0  0
   -7.7340   -4.9810   25.4750 F   0  0  0  0  0  0  0  0  0  0  0  0
   -6.5590   -5.0960   27.2530 F   0  0  0  0  0  0  0  0  0  0  0  0
   -4.1210   -4.3710   22.4310 C   0  0  0  0  0  0  0  0  0  0  0  0
   -4.7770   -5.5810   22.2840 C   0  0  0  0  0  0  0  0  0  0  0  0
   -7.0200   -7.3880   19.9590 C   0  0  0  0  0  0  0  0  0  0  0  0
   -8.7520   -8.7690   18.8540 C   0  0  0  0  0  0  0  0  0  0  0  0
   -6.9460   -9.7610   20.2190 C   0  0  0  0  0  0  0  0  0  0  0  0
   -7.4110  -10.8940   20.0140 O   0  0  0  0  0  0  0  0  0  0  0  0
  1  3  1  0  0  0  0
  1 14  1  0  0  0  0
  2  9  1  0  0  0  0
  2 11  1  0  0  0  0
  3 27  1  0  0  0  0
  4  6  1  0  0  0  0
  4  3  2  0  0  0  0
  5  9  1  0  0  0  0
  5 10  1  0  0  0  0
  6  7  2  0  0  0  0
  7 12  1  0  0  0  0
  7 26  1  0  0  0  0
  8 13  1  0  0  0  0
  8  9  1  0  0  0  0
 12  8  2  0  0  0  0
 13 19  1  0  0  0  0
 15 28  1  0  0  0  0
 15 30  1  0  0  0  0
 17 14  2  0  0  0  0
 17 16  1  0  0  0  0
 18 10  1  0  0  0  0
 18 11  1  0  0  0  0
 19 20  1  0  0  0  0
 21 20  1  0  0  0  0
 21 22  1  0  0  0  0
 22 23  1  0  0  0  0
 22 25  1  0  0  0  0
 24 22  1  0  0  0  0
 26 13  1  0  0  0  0
 27 26  2  0  0  0  0
 28  1  2  0  0  0  0
 29 15  1  0  0  0  0
 30 17  1  0  0  0  0
 31 30  2  0  0  0  0
M  END
$$$$
