/Users/chinazoemeh/HopeMScP/data/ligands/BRD4-BD1_BRD4-BD1_33_7EIL/BRD4-BD1_BRD4-BD1_33_7EIL.pdb
 OpenBabel07142514423D

 35 39  0  0  1  0  0  0  0  0999 V2000
    4.7990    9.0210   -0.0590 C   0  0  0  0  0  0  0  0  0  0  0  0
    1.1130    5.9280   -3.1430 C   0  0  0  0  0  0  0  0  0  0  0  0
    1.7740    7.2680   -3.4500 C   0  0  0  0  0  0  0  0  0  0  0  0
   -0.6890    4.8010   -2.0490 C   0  0  0  0  0  0  0  0  0  0  0  0
    7.5650    7.0780   -0.8580 C   0  0  0  0  0  0  0  0  0  0  0  0
    8.9610    6.5860   -0.8860 C   0  0  0  0  0  0  0  0  0  0  0  0
   10.1180    7.1540   -0.1500 C   0  0  2  0  0  0  0  0  0  0  0  0
   11.1820    6.2470   -0.6610 C   0  0  0  0  0  0  0  0  0  0  0  0
    5.8320    8.1960   -0.4540 C   0  0  0  0  0  0  0  0  0  0  0  0
   10.5440    5.2890   -1.6280 C   0  0  0  0  0  0  0  0  0  0  0  0
   11.1980    4.1840   -2.4090 C   0  0  0  0  0  0  0  0  0  0  0  0
   12.6470    6.2490   -0.3280 C   0  0  0  0  0  0  0  0  0  0  0  0
   13.2610    7.4700    0.2960 C   0  0  0  0  0  0  0  0  0  0  0  0
   10.1860    8.2790    0.8360 C   0  0  0  0  0  0  0  0  0  0  0  0
    9.9050    9.5870    0.4520 C   0  0  0  0  0  0  0  0  0  0  0  0
    9.9820   10.6150    1.3860 C   0  0  0  0  0  0  0  0  0  0  0  0
   10.3330   10.3530    2.7050 C   0  0  0  0  0  0  0  0  0  0  0  0
   10.6310    9.0480    3.0830 C   0  0  0  0  0  0  0  0  0  0  0  0
    5.5400    7.1850   -1.4970 C   0  0  0  0  0  0  0  0  0  0  0  0
   10.5490    8.0150    2.1550 C   0  0  0  0  0  0  0  0  0  0  0  0
    9.9590   11.4090    4.8320 C   0  0  0  0  0  0  0  0  0  0  0  0
   10.1750   12.7180    5.5430 C   0  0  0  0  0  0  0  0  0  0  0  0
    4.2610    7.0880   -2.0250 C   0  0  0  0  0  0  0  0  0  0  0  0
    3.2610    7.9460   -1.5850 C   0  0  0  0  0  0  0  0  0  0  0  0
    3.5230    8.8980   -0.6030 C   0  0  0  0  0  0  0  0  0  0  0  0
    0.8060    8.1840   -1.3500 C   0  0  0  0  0  0  0  0  0  0  0  0
    0.1670    6.8240   -1.0910 C   0  0  0  0  0  0  0  0  0  0  0  0
   -0.1140    6.1200   -2.3540 N   0  0  0  0  0  0  0  0  0  0  0  0
    6.6880    6.5270   -1.7130 N   0  0  0  0  0  0  0  0  0  0  0  0
    7.1290    8.0870   -0.1060 N   0  0  0  0  0  0  0  0  0  0  0  0
    9.2310    5.5710   -1.7080 N   0  0  0  0  0  0  0  0  0  0  0  0
   10.4100   11.3940    3.5760 N   0  0  0  0  0  0  0  0  0  0  0  0
    1.9760    7.8210   -2.1250 N   0  0  0  0  0  0  0  0  0  0  0  0
    9.4190   10.4590    5.3830 O   0  0  0  0  0  0  0  0  0  0  0  0
   13.3430    5.2870   -0.6000 O   0  0  0  0  0  0  0  0  0  0  0  0
  2 28  1  0  0  0  0
  3  2  1  0  0  0  0
  3 33  1  0  0  0  0
  5 30  1  0  0  0  0
  6  5  1  0  0  0  0
  6  7  1  0  0  0  0
  7 14  1  1  0  0  0
  8 12  1  0  0  0  0
  8  7  1  0  0  0  0
  9 30  1  0  0  0  0
  9  1  1  0  0  0  0
 10  8  2  0  0  0  0
 11 10  1  0  0  0  0
 12 13  1  0  0  0  0
 14 20  1  0  0  0  0
 15 14  2  0  0  0  0
 15 16  1  0  0  0  0
 16 17  2  0  0  0  0
 17 18  1  0  0  0  0
 17 32  1  0  0  0  0
 19  9  2  0  0  0  0
 20 18  2  0  0  0  0
 21 34  2  0  0  0  0
 21 22  1  0  0  0  0
 23 24  2  0  0  0  0
 23 19  1  0  0  0  0
 24 25  1  0  0  0  0
 25  1  2  0  0  0  0
 26 27  1  0  0  0  0
 28  4  1  0  0  0  0
 28 27  1  0  0  0  0
 29 19  1  0  0  0  0
 29  5  2  0  0  0  0
 31 10  1  0  0  0  0
 31  6  2  0  0  0  0
 32 21  1  0  0  0  0
 33 24  1  0  0  0  0
 33 26  1  0  0  0  0
 35 12  2  0  0  0  0
M  END
$$$$
