/Users/chinazoemeh/HopeMScP/data/ligands/BRD4-BD1_BRD4-BD1_19_6LIH/BRD4-BD1_BRD4-BD1_19_6LIH.pdb
 OpenBabel07142514433D

 54 57  0  0  1  0  0  0  0  0999 V2000
  -14.3880   -9.4720    2.2330 C   0  0  0  0  0  0  0  0  0  0  0  0
  -11.9360   -7.6730    1.1170 C   0  0  0  0  0  0  0  0  0  0  0  0
   -9.8240   -9.1570    4.1080 C   0  0  0  0  0  0  0  0  0  0  0  0
  -10.7130   -8.8060    5.3530 C   0  0  0  0  0  0  0  0  0  0  0  0
  -11.1550   -9.8380    6.1760 C   0  0  0  0  0  0  0  0  0  0  0  0
  -12.3070   -8.1930    7.5940 C   0  0  0  0  0  0  0  0  0  0  0  0
  -11.0520   -7.4640    5.6320 C   0  0  0  0  0  0  0  0  0  0  0  0
  -15.4980   -5.4660   -0.1050 C   0  0  0  0  0  0  0  0  0  0  0  0
  -13.9570   -3.7990   -1.2190 C   0  0  0  0  0  0  0  0  0  0  0  0
  -13.0030   -5.9440   -0.2260 C   0  0  0  0  0  0  0  0  0  0  0  0
  -11.7900   -5.7210   -0.9260 C   0  0  0  0  0  0  0  0  0  0  0  0
  -10.6600   -6.4980   -0.6280 C   0  0  0  0  0  0  0  0  0  0  0  0
  -13.0890   -6.8900    0.7960 C   0  0  0  0  0  0  0  0  0  0  0  0
  -14.4440   -8.0000    2.6910 C   0  0  0  0  0  0  0  0  0  0  0  0
  -15.6910   -7.7380    3.5940 C   0  0  0  0  0  0  0  0  0  0  0  0
  -15.5290   -6.8810    0.6310 C   0  0  1  0  0  0  0  0  0  0  0  0
  -15.6060   -7.9420   -0.4840 C   0  0  0  0  0  0  0  0  0  0  0  0
  -10.7210   -7.4510    0.3900 C   0  0  0  0  0  0  0  0  0  0  0  0
   -9.2820   -8.8640    1.9060 C   0  0  0  0  0  0  0  0  0  0  0  0
   -8.0630  -10.3920    3.1070 C   0  0  0  0  0  0  0  0  0  0  0  0
   -8.8130  -10.1260    4.2260 C   0  0  0  0  0  0  0  0  0  0  0  0
  -11.9580   -9.5450    7.3050 C   0  0  0  0  0  0  0  0  0  0  0  0
  -11.8580   -7.1680    6.7720 C   0  0  0  0  0  0  0  0  0  0  0  0
  -14.1720   -5.0900   -0.5370 N   0  0  0  0  0  0  0  0  0  0  0  0
  -14.3910   -7.0680    1.4730 N   0  0  0  0  0  0  0  0  0  0  0  0
   -9.5090   -8.2040    0.6350 N   0  0  0  0  0  0  0  0  0  0  0  0
   -8.3030   -9.7720    1.9710 N   0  0  0  0  0  0  0  0  0  0  0  0
  -10.0080   -8.5590    2.9560 N   0  0  0  0  0  0  0  0  0  0  0  0
  -16.4300   -4.8110   -0.3230 O   0  0  0  0  0  0  0  0  0  0  0  0
  -14.0470   -9.5140    1.3260 H   0  0  0  0  0  0  0  0  0  0  0  0
  -15.2790   -9.8540    2.2600 H   0  0  0  0  0  0  0  0  0  0  0  0
  -13.8030   -9.9730    2.8230 H   0  0  0  0  0  0  0  0  0  0  0  0
  -11.9810   -8.3300    1.7740 H   0  0  0  0  0  0  0  0  0  0  0  0
  -10.9270  -10.7190    5.9830 H   0  0  0  0  0  0  0  0  0  0  0  0
  -12.8330   -7.9960    8.3360 H   0  0  0  0  0  0  0  0  0  0  0  0
  -10.7510   -6.7790    5.0800 H   0  0  0  0  0  0  0  0  0  0  0  0
  -13.2600   -3.3030   -0.7630 H   0  0  0  0  0  0  0  0  0  0  0  0
  -14.7800   -3.2850   -1.2070 H   0  0  0  0  0  0  0  0  0  0  0  0
  -13.6910   -3.9600   -2.1380 H   0  0  0  0  0  0  0  0  0  0  0  0
  -11.7480   -5.0710   -1.5900 H   0  0  0  0  0  0  0  0  0  0  0  0
   -9.8620   -6.3510   -1.0810 H   0  0  0  0  0  0  0  0  0  0  0  0
  -13.6540   -7.8290    3.2270 H   0  0  0  0  0  0  0  0  0  0  0  0
  -16.3060   -7.1470    3.1320 H   0  0  0  0  0  0  0  0  0  0  0  0
  -15.4080   -7.3250    4.4250 H   0  0  0  0  0  0  0  0  0  0  0  0
  -16.1350   -8.5790    3.7860 H   0  0  0  0  0  0  0  0  0  0  0  0
  -16.3300   -6.9320    1.1750 H   0  0  0  0  0  0  0  0  0  0  0  0
  -14.8150   -7.8840   -1.0420 H   0  0  0  0  0  0  0  0  0  0  0  0
  -16.3960   -7.7840   -1.0250 H   0  0  0  0  0  0  0  0  0  0  0  0
  -15.6590   -8.8260   -0.0860 H   0  0  0  0  0  0  0  0  0  0  0  0
   -7.3860  -11.0280    3.1500 H   0  0  0  0  0  0  0  0  0  0  0  0
   -8.6480  -10.5590    5.0320 H   0  0  0  0  0  0  0  0  0  0  0  0
  -12.2570  -10.2330    7.8560 H   0  0  0  0  0  0  0  0  0  0  0  0
  -12.0870   -6.2870    6.9610 H   0  0  0  0  0  0  0  0  0  0  0  0
   -8.9140   -8.2600    0.0170 H   0  0  0  0  0  0  0  0  0  0  0  0
  1 31  1  0  0  0  0
  1 14  1  0  0  0  0
  1 32  1  0  0  0  0
  2 33  1  0  0  0  0
  3 21  1  0  0  0  0
  3  4  1  0  0  0  0
  4  7  2  0  0  0  0
  4  5  1  0  0  0  0
  5 22  2  0  0  0  0
  6 35  1  0  0  0  0
  7 23  1  0  0  0  0
  8 16  1  0  0  0  0
  9 38  1  0  0  0  0
  9 37  1  0  0  0  0
  9 24  1  0  0  0  0
 10 13  2  0  0  0  0
 11 12  2  0  0  0  0
 11 10  1  0  0  0  0
 12 18  1  0  0  0  0
 13  2  1  0  0  0  0
 13 25  1  0  0  0  0
 14 42  1  0  0  0  0
 14 15  1  0  0  0  0
 15 45  1  0  0  0  0
 15 44  1  0  0  0  0
 16 46  1  1  0  0  0
 16 25  1  0  0  0  0
 17 49  1  0  0  0  0
 17 16  1  0  0  0  0
 18 26  1  0  0  0  0
 18  2  2  0  0  0  0
 19 27  2  0  0  0  0
 19 28  1  0  0  0  0
 20 50  1  0  0  0  0
 20 21  2  0  0  0  0
 21 51  1  0  0  0  0
 22  6  1  0  0  0  0
 22 52  1  0  0  0  0
 23 53  1  0  0  0  0
 23  6  2  0  0  0  0
 24 10  1  0  0  0  0
 24  8  1  0  0  0  0
 25 14  1  0  0  0  0
 26 19  1  0  0  0  0
 27 20  1  0  0  0  0
 28  3  2  0  0  0  0
 29  8  2  0  0  0  0
 30  1  1  0  0  0  0
 34  5  1  0  0  0  0
 36  7  1  0  0  0  0
 39  9  1  0  0  0  0
 40 11  1  0  0  0  0
 41 12  1  0  0  0  0
 43 15  1  0  0  0  0
 47 17  1  0  0  0  0
 48 17  1  0  0  0  0
 54 26  1  0  0  0  0
M  END
$$$$
