/Users/chinazoemeh/HopeMScP/data/ligands/BRD4-BD1_BRD4-BD1_51_6XV3/BRD4-BD1_BRD4-BD1_51_6XV3.pdb
 OpenBabel07142514423D

284304  0  0  1  0  0  0  0  0999 V2000
   -2.6680  -15.7360   49.3030 N   0  0  0  0  0  0  0  0  0  0  0  0
   -2.3720  -14.8970   48.2460 C   0  0  0  0  0  0  0  0  0  0  0  0
   -2.9900  -15.4580   47.1100 C   0  0  0  0  0  0  0  0  0  0  0  0
   -2.8810  -14.7620   45.8980 C   0  0  0  0  0  0  0  0  0  0  0  0
   -1.4480  -13.2040   46.8690 C   0  0  0  0  0  0  0  0  0  0  0  0
   -2.4540  -15.3980   50.7330 C   0  0  2  0  0  0  0  0  0  0  0  0
   -5.7030  -13.4760   51.2380 C   0  0  0  0  0  0  0  0  0  0  0  0
   -3.8980  -12.0830   52.0490 C   0  0  0  0  0  0  0  0  0  0  0  0
    1.6850  -11.3480   46.8350 C   0  0  0  0  0  0  0  0  0  0  0  0
    0.5050  -11.9230   47.5810 C   0  0  0  0  0  0  0  0  0  0  0  0
   -2.1550  -10.6010   45.4880 C   0  0  0  0  0  0  0  0  0  0  0  0
   -4.9710  -18.6740   48.8760 C   0  0  0  0  0  0  0  0  0  0  0  0
   -3.4830  -16.7280   48.7650 C   0  0  0  0  0  0  0  0  0  0  0  0
   -3.6860  -16.5970   47.4760 N   0  0  0  0  0  0  0  0  0  0  0  0
   -2.0980  -13.6880   45.7780 N   0  0  0  0  0  0  0  0  0  0  0  0
   -1.6030  -13.7400   48.1630 C   0  0  0  0  0  0  0  0  0  0  0  0
   -3.4060  -14.2720   51.1180 C   0  0  0  0  0  0  0  0  0  0  0  0
   -4.7780  -14.4590   50.8940 C   0  0  0  0  0  0  0  0  0  0  0  0
   -5.2620  -12.2820   51.8210 C   0  0  0  0  0  0  0  0  0  0  0  0
   -2.9770  -13.0770   51.7010 C   0  0  0  0  0  0  0  0  0  0  0  0
   -0.6100  -12.1200   46.6730 N   0  0  0  0  0  0  0  0  0  0  0  0
   -0.7810  -11.2610   45.4930 C   0  0  2  0  0  0  0  0  0  0  0  0
    0.3050  -10.1470   45.3510 C   0  0  0  0  0  0  0  0  0  0  0  0
    1.3230  -10.0840   46.3300 O   0  0  0  0  0  0  0  0  0  0  0  0
   -0.9820  -15.1820   51.0530 C   0  0  0  0  0  0  0  0  0  0  0  0
   -4.1790  -19.0190   51.5110 C   0  0  0  0  0  0  0  0  0  0  0  0
   -4.0630  -17.8730   49.4960 C   0  0  0  0  0  0  0  0  0  0  0  0
   -3.6780  -18.0390   50.8000 N   0  0  0  0  0  0  0  0  0  0  0  0
   -3.8320  -19.1930   52.8040 N   0  0  0  0  0  0  0  0  0  0  0  0
   -5.4870  -19.7150   49.6200 N   0  0  0  0  0  0  0  0  0  0  0  0
   -5.1400  -19.9330   50.9270 C   0  0  0  0  0  0  0  0  0  0  0  0
   -5.7820  -20.9830   51.3960 N   0  0  0  0  0  0  0  0  0  0  0  0
   -6.5800  -21.4400   50.3880 N   0  0  0  0  0  0  0  0  0  0  0  0
   -6.3870  -20.6960   49.3150 C   0  0  0  0  0  0  0  0  0  0  0  0
   -6.9940  -20.8700   47.9660 C   0  0  0  0  0  0  0  0  0  0  0  0
   -3.0490  -18.1940   53.5410 C   0  0  0  0  0  0  0  0  0  0  0  0
   -3.9140  -17.0160   54.0020 C   0  0  0  0  0  0  0  0  0  0  0  0
   -2.3280  -18.8780   54.7000 C   0  0  0  0  0  0  0  0  0  0  0  0
   -3.4310  -15.1170   45.0110 H   0  0  0  0  0  0  0  0  0  0  0  0
   -2.7620  -16.2950   51.2860 H   0  0  0  0  0  0  0  0  0  0  0  0
   -6.7700  -13.6470   51.0630 H   0  0  0  0  0  0  0  0  0  0  0  0
   -3.5420  -11.1590   52.5160 H   0  0  0  0  0  0  0  0  0  0  0  0
    2.5410  -11.2060   47.5120 H   0  0  0  0  0  0  0  0  0  0  0  0
    2.0150  -12.0280   46.0250 H   0  0  0  0  0  0  0  0  0  0  0  0
    0.7890  -12.8990   47.9950 H   0  0  0  0  0  0  0  0  0  0  0  0
    0.2710  -11.2320   48.4130 H   0  0  0  0  0  0  0  0  0  0  0  0
   -2.2810   -9.9990   44.5760 H   0  0  0  0  0  0  0  0  0  0  0  0
   -2.2650   -9.9480   46.3650 H   0  0  0  0  0  0  0  0  0  0  0  0
   -2.9560  -11.3450   45.4990 H   0  0  0  0  0  0  0  0  0  0  0  0
   -5.2750  -18.5510   47.8470 H   0  0  0  0  0  0  0  0  0  0  0  0
   -1.1450  -13.2810   49.0370 H   0  0  0  0  0  0  0  0  0  0  0  0
   -5.1300  -15.3960   50.4550 H   0  0  0  0  0  0  0  0  0  0  0  0
   -5.9850  -11.5130   52.1040 H   0  0  0  0  0  0  0  0  0  0  0  0
   -1.9150  -12.9170   51.9010 H   0  0  0  0  0  0  0  0  0  0  0  0
   -0.7140  -11.9030   44.6060 H   0  0  0  0  0  0  0  0  0  0  0  0
   -0.2040   -9.1700   45.4150 H   0  0  0  0  0  0  0  0  0  0  0  0
    0.7690  -10.2640   44.3510 H   0  0  0  0  0  0  0  0  0  0  0  0
   -0.5440  -14.2790   50.6090 H   0  0  0  0  0  0  0  0  0  0  0  0
   -0.4060  -16.0560   50.7260 H   0  0  0  0  0  0  0  0  0  0  0  0
   -0.8590  -15.1160   52.1400 H   0  0  0  0  0  0  0  0  0  0  0  0
   -4.3900  -19.8570   53.3400 H   0  0  0  0  0  0  0  0  0  0  0  0
   -6.1880  -21.0020   47.2300 H   0  0  0  0  0  0  0  0  0  0  0  0
   -7.6050  -20.0060   47.6590 H   0  0  0  0  0  0  0  0  0  0  0  0
   -7.6160  -21.7750   47.9630 H   0  0  0  0  0  0  0  0  0  0  0  0
   -2.2890  -17.7930   52.8500 H   0  0  0  0  0  0  0  0  0  0  0  0
   -4.7020  -17.3550   54.6950 H   0  0  0  0  0  0  0  0  0  0  0  0
   -4.3930  -16.5090   53.1490 H   0  0  0  0  0  0  0  0  0  0  0  0
   -3.2830  -16.2820   54.5270 H   0  0  0  0  0  0  0  0  0  0  0  0
   -3.0470  -19.3060   55.4190 H   0  0  0  0  0  0  0  0  0  0  0  0
   -1.6980  -18.1520   55.2380 H   0  0  0  0  0  0  0  0  0  0  0  0
   -1.6800  -19.6820   54.3260 H   0  0  0  0  0  0  0  0  0  0  0  0
   -0.2210   -8.3570   21.0480 N   0  0  0  0  0  0  0  0  0  0  0  0
    0.1460   -7.5700   19.9700 C   0  0  0  0  0  0  0  0  0  0  0  0
   -0.4220   -8.1880   18.8390 C   0  0  0  0  0  0  0  0  0  0  0  0
   -0.2840   -7.5520   17.6000 C   0  0  0  0  0  0  0  0  0  0  0  0
    1.1300   -5.9640   18.5250 C   0  0  0  0  0  0  0  0  0  0  0  0
   -0.0460   -7.9970   22.4710 C   0  0  2  0  0  0  0  0  0  0  0  0
   -3.3040   -6.0420   22.7840 C   0  0  0  0  0  0  0  0  0  0  0  0
   -1.6380   -4.8990   24.0940 C   0  0  0  0  0  0  0  0  0  0  0  0
    4.0150   -3.6380   18.6870 C   0  0  0  0  0  0  0  0  0  0  0  0
    2.8550   -4.4050   19.3020 C   0  0  0  0  0  0  0  0  0  0  0  0
    0.5490   -2.9440   17.7100 C   0  0  0  0  0  0  0  0  0  0  0  0
   -2.6070  -11.2220   20.6530 C   0  0  0  0  0  0  0  0  0  0  0  0
   -1.0090   -9.3720   20.5140 C   0  0  0  0  0  0  0  0  0  0  0  0
   -1.1500   -9.2980   19.2120 N   0  0  0  0  0  0  0  0  0  0  0  0
    0.4920   -6.4860   17.4430 N   0  0  0  0  0  0  0  0  0  0  0  0
    0.9350   -6.4210   19.8410 C   0  0  0  0  0  0  0  0  0  0  0  0
   -1.0210   -6.8830   22.8420 C   0  0  0  0  0  0  0  0  0  0  0  0
   -2.3450   -6.9660   22.3830 C   0  0  0  0  0  0  0  0  0  0  0  0
   -2.9530   -5.0020   23.6480 C   0  0  0  0  0  0  0  0  0  0  0  0
   -0.6740   -5.8280   23.6920 C   0  0  0  0  0  0  0  0  0  0  0  0
    1.9970   -4.9150   18.2480 N   0  0  0  0  0  0  0  0  0  0  0  0
    1.5990   -3.9400   17.2210 C   0  0  2  0  0  0  0  0  0  0  0  0
    2.8460   -3.2150   16.7360 C   0  0  0  0  0  0  0  0  0  0  0  0
    3.5580   -2.6270   17.8120 O   0  0  0  0  0  0  0  0  0  0  0  0
    1.4230   -7.7820   22.8010 C   0  0  0  0  0  0  0  0  0  0  0  0
   -1.9930  -11.4320   23.3560 C   0  0  0  0  0  0  0  0  0  0  0  0
   -1.6910  -10.4330   21.2820 C   0  0  0  0  0  0  0  0  0  0  0  0
   -1.3870  -10.5290   22.6190 N   0  0  0  0  0  0  0  0  0  0  0  0
   -1.7770  -11.5340   24.6790 N   0  0  0  0  0  0  0  0  0  0  0  0
   -3.2240  -12.1930   21.4270 N   0  0  0  0  0  0  0  0  0  0  0  0
   -2.9510  -12.3480   22.7600 C   0  0  0  0  0  0  0  0  0  0  0  0
   -3.6400  -13.3590   23.2510 N   0  0  0  0  0  0  0  0  0  0  0  0
   -4.4100  -13.8470   22.2330 N   0  0  0  0  0  0  0  0  0  0  0  0
   -4.1410  -13.1670   21.1350 C   0  0  0  0  0  0  0  0  0  0  0  0
   -4.7390  -13.3910   19.7960 C   0  0  0  0  0  0  0  0  0  0  0  0
   -0.9130  -10.6140   25.4170 C   0  0  0  0  0  0  0  0  0  0  0  0
   -1.6750   -9.3900   25.9350 C   0  0  0  0  0  0  0  0  0  0  0  0
   -0.1990  -11.3840   26.5190 C   0  0  0  0  0  0  0  0  0  0  0  0
   -0.8060   -7.9400   16.7170 H   0  0  0  0  0  0  0  0  0  0  0  0
   -0.3660   -8.8890   23.0270 H   0  0  0  0  0  0  0  0  0  0  0  0
   -4.3290   -6.1350   22.4210 H   0  0  0  0  0  0  0  0  0  0  0  0
   -1.3550   -4.0850   24.7630 H   0  0  0  0  0  0  0  0  0  0  0  0
    4.6240   -3.1660   19.4690 H   0  0  0  0  0  0  0  0  0  0  0  0
    4.6700   -4.3330   18.1290 H   0  0  0  0  0  0  0  0  0  0  0  0
    3.2740   -5.2510   19.8610 H   0  0  0  0  0  0  0  0  0  0  0  0
    2.3240   -3.7580   20.0260 H   0  0  0  0  0  0  0  0  0  0  0  0
    0.2760   -2.2630   16.8880 H   0  0  0  0  0  0  0  0  0  0  0  0
    0.9340   -2.3410   18.5450 H   0  0  0  0  0  0  0  0  0  0  0  0
   -0.3680   -3.4530   18.0310 H   0  0  0  0  0  0  0  0  0  0  0  0
   -2.8680  -11.1300   19.6030 H   0  0  0  0  0  0  0  0  0  0  0  0
    1.3570   -5.9140   20.7080 H   0  0  0  0  0  0  0  0  0  0  0  0
   -2.6390   -7.7790   21.7140 H   0  0  0  0  0  0  0  0  0  0  0  0
   -3.6940   -4.2610   23.9500 H   0  0  0  0  0  0  0  0  0  0  0  0
    0.3470   -5.7310   24.0670 H   0  0  0  0  0  0  0  0  0  0  0  0
    1.1800   -4.5090   16.3830 H   0  0  0  0  0  0  0  0  0  0  0  0
    2.5650   -2.4090   16.0430 H   0  0  0  0  0  0  0  0  0  0  0  0
    3.5060   -3.9250   16.2080 H   0  0  0  0  0  0  0  0  0  0  0  0
    1.8760   -6.9040   22.3190 H   0  0  0  0  0  0  0  0  0  0  0  0
    1.9950   -8.6770   22.5200 H   0  0  0  0  0  0  0  0  0  0  0  0
    1.5370   -7.6800   23.8850 H   0  0  0  0  0  0  0  0  0  0  0  0
   -2.3670  -12.1930   25.1890 H   0  0  0  0  0  0  0  0  0  0  0  0
   -3.9530  -13.5710   19.0510 H   0  0  0  0  0  0  0  0  0  0  0  0
   -5.3470  -12.5350   19.4610 H   0  0  0  0  0  0  0  0  0  0  0  0
   -5.3740  -14.2810   19.8510 H   0  0  0  0  0  0  0  0  0  0  0  0
   -0.1510  -10.2500   24.7100 H   0  0  0  0  0  0  0  0  0  0  0  0
   -2.4580   -9.6850   26.6530 H   0  0  0  0  0  0  0  0  0  0  0  0
   -2.1490   -8.8430   25.1050 H   0  0  0  0  0  0  0  0  0  0  0  0
   -0.9790   -8.7070   26.4510 H   0  0  0  0  0  0  0  0  0  0  0  0
   -0.9120  -11.7960   27.2500 H   0  0  0  0  0  0  0  0  0  0  0  0
    0.4890  -10.7220   27.0600 H   0  0  0  0  0  0  0  0  0  0  0  0
    0.3850  -12.2090   26.0920 H   0  0  0  0  0  0  0  0  0  0  0  0
   19.4730  -47.8400   -5.5160 N   0  0  0  0  0  0  0  0  0  0  0  0
   19.7910  -48.7190   -4.4920 C   0  0  0  0  0  0  0  0  0  0  0  0
   19.1760  -48.1880   -3.3420 C   0  0  0  0  0  0  0  0  0  0  0  0
   19.2980  -48.8790   -2.1350 C   0  0  0  0  0  0  0  0  0  0  0  0
   20.6190  -50.4900   -3.1540 C   0  0  0  0  0  0  0  0  0  0  0  0
   19.6540  -48.1260   -6.9570 C   0  0  2  0  0  0  0  0  0  0  0  0
   16.3560  -49.8980   -7.5710 C   0  0  0  0  0  0  0  0  0  0  0  0
   18.1230  -51.4990   -8.0170 C   0  0  0  0  0  0  0  0  0  0  0  0
   22.7100  -53.5760   -3.7950 C   0  0  0  0  0  0  0  0  0  0  0  0
   21.8970  -52.3210   -4.1280 C   0  0  0  0  0  0  0  0  0  0  0  0
   19.5740  -53.1210   -1.9670 C   0  0  0  0  0  0  0  0  0  0  0  0
   17.2460  -44.8650   -4.9670 C   0  0  0  0  0  0  0  0  0  0  0  0
   18.6740  -46.8580   -4.9400 C   0  0  0  0  0  0  0  0  0  0  0  0
   18.5070  -47.0210   -3.6480 N   0  0  0  0  0  0  0  0  0  0  0  0
   20.0230  -49.9850   -2.0410 N   0  0  0  0  0  0  0  0  0  0  0  0
   20.5090  -49.9170   -4.4320 C   0  0  0  0  0  0  0  0  0  0  0  0
   18.6940  -49.2440   -7.3260 C   0  0  0  0  0  0  0  0  0  0  0  0
   17.3210  -48.9500   -7.2460 C   0  0  0  0  0  0  0  0  0  0  0  0
   16.7630  -51.1810   -7.9630 C   0  0  0  0  0  0  0  0  0  0  0  0
   19.0870  -50.5350   -7.6910 C   0  0  0  0  0  0  0  0  0  0  0  0
   21.3630  -51.6470   -2.9490 N   0  0  0  0  0  0  0  0  0  0  0  0
   20.9540  -52.4790   -1.8070 C   0  0  2  0  0  0  0  0  0  0  0  0
   22.0010  -53.5470   -1.5670 C   0  0  0  0  0  0  0  0  0  0  0  0
   22.1830  -54.3350   -2.7280 O   0  0  0  0  0  0  0  0  0  0  0  0
   21.1220  -48.3220   -7.3010 C   0  0  0  0  0  0  0  0  0  0  0  0
   17.9410  -44.4770   -7.6300 C   0  0  0  0  0  0  0  0  0  0  0  0
   18.1110  -45.6730   -5.6420 C   0  0  0  0  0  0  0  0  0  0  0  0
   18.4470  -45.4880   -6.9630 N   0  0  0  0  0  0  0  0  0  0  0  0
   18.2230  -44.2720   -8.9310 N   0  0  0  0  0  0  0  0  0  0  0  0
   16.7290  -43.7820   -5.6570 N   0  0  0  0  0  0  0  0  0  0  0  0
   17.0420  -43.5560   -6.9720 C   0  0  0  0  0  0  0  0  0  0  0  0
   16.4100  -42.4930   -7.4180 N   0  0  0  0  0  0  0  0  0  0  0  0
   15.6560  -42.0220   -6.3890 N   0  0  0  0  0  0  0  0  0  0  0  0
   15.8450  -42.7860   -5.3310 C   0  0  0  0  0  0  0  0  0  0  0  0
   15.2270  -42.6070   -3.9910 C   0  0  0  0  0  0  0  0  0  0  0  0
   19.0140  -45.2190   -9.7150 C   0  0  0  0  0  0  0  0  0  0  0  0
   18.2240  -46.4790  -10.0740 C   0  0  0  0  0  0  0  0  0  0  0  0
   19.5920  -44.5220  -10.9530 C   0  0  0  0  0  0  0  0  0  0  0  0
   18.7710  -48.5280   -1.2390 H   0  0  0  0  0  0  0  0  0  0  0  0
   19.2960  -47.2410   -7.4980 H   0  0  0  0  0  0  0  0  0  0  0  0
   15.2890  -49.6410   -7.5190 H   0  0  0  0  0  0  0  0  0  0  0  0
   18.4340  -52.5100   -8.3110 H   0  0  0  0  0  0  0  0  0  0  0  0
   23.7520  -53.3150   -3.5370 H   0  0  0  0  0  0  0  0  0  0  0  0
   22.7270  -54.2430   -4.6770 H   0  0  0  0  0  0  0  0  0  0  0  0
   22.5930  -51.6310   -4.6230 H   0  0  0  0  0  0  0  0  0  0  0  0
   21.1110  -52.5660   -4.8690 H   0  0  0  0  0  0  0  0  0  0  0  0
   19.5590  -53.8220   -2.8120 H   0  0  0  0  0  0  0  0  0  0  0  0
   19.2820  -53.6670   -1.0540 H   0  0  0  0  0  0  0  0  0  0  0  0
   18.8120  -52.3590   -2.1410 H   0  0  0  0  0  0  0  0  0  0  0  0
   16.9700  -45.0160   -3.9330 H   0  0  0  0  0  0  0  0  0  0  0  0
   20.9600  -50.3740   -5.3100 H   0  0  0  0  0  0  0  0  0  0  0  0
   17.0020  -47.9460   -6.9500 H   0  0  0  0  0  0  0  0  0  0  0  0
   16.0140  -51.9360   -8.2140 H   0  0  0  0  0  0  0  0  0  0  0  0
   20.1430  -50.8170   -7.7620 H   0  0  0  0  0  0  0  0  0  0  0  0
   20.9370  -51.8270   -0.9290 H   0  0  0  0  0  0  0  0  0  0  0  0
   22.9690  -53.1000   -1.2960 H   0  0  0  0  0  0  0  0  0  0  0  0
   21.6910  -54.2200   -0.7450 H   0  0  0  0  0  0  0  0  0  0  0  0
   21.6420  -49.0180   -6.6270 H   0  0  0  0  0  0  0  0  0  0  0  0
   21.2090  -48.6780   -8.3360 H   0  0  0  0  0  0  0  0  0  0  0  0
   21.6320  -47.3520   -7.2520 H   0  0  0  0  0  0  0  0  0  0  0  0
   17.6970  -43.5400   -9.4000 H   0  0  0  0  0  0  0  0  0  0  0  0
   14.3000  -42.0330   -4.1080 H   0  0  0  0  0  0  0  0  0  0  0  0
   15.0020  -43.5750   -3.5230 H   0  0  0  0  0  0  0  0  0  0  0  0
   15.9010  -42.0370   -3.3340 H   0  0  0  0  0  0  0  0  0  0  0  0
   19.8320  -45.5200   -9.0480 H   0  0  0  0  0  0  0  0  0  0  0  0
   17.7070  -46.9000   -9.1990 H   0  0  0  0  0  0  0  0  0  0  0  0
   17.4770  -46.2610  -10.8520 H   0  0  0  0  0  0  0  0  0  0  0  0
   18.9230  -47.2360  -10.4630 H   0  0  0  0  0  0  0  0  0  0  0  0
   19.3950  -45.1220  -11.8510 H   0  0  0  0  0  0  0  0  0  0  0  0
   19.1340  -43.5350  -11.1100 H   0  0  0  0  0  0  0  0  0  0  0  0
   20.6760  -44.3800  -10.8690 H   0  0  0  0  0  0  0  0  0  0  0  0
   20.3780  -54.9310   23.4050 N   0  0  0  0  0  0  0  0  0  0  0  0
   20.7830  -55.7290   24.4580 C   0  0  0  0  0  0  0  0  0  0  0  0
   20.1460  -55.2130   25.6020 C   0  0  0  0  0  0  0  0  0  0  0  0
   20.3840  -55.8540   26.8260 C   0  0  0  0  0  0  0  0  0  0  0  0
   21.7640  -57.4200   25.7900 C   0  0  0  0  0  0  0  0  0  0  0  0
   20.6850  -55.2390   21.9900 C   0  0  2  0  0  0  0  0  0  0  0  0
   17.8230  -57.6860   21.5690 C   0  0  0  0  0  0  0  0  0  0  0  0
   19.8440  -58.8360   20.8810 C   0  0  0  0  0  0  0  0  0  0  0  0
   24.2280  -60.1070   25.0880 C   0  0  0  0  0  0  0  0  0  0  0  0
   22.8890  -59.3890   24.8320 C   0  0  0  0  0  0  0  0  0  0  0  0
   20.9830  -59.7940   27.5180 C   0  0  0  0  0  0  0  0  0  0  0  0
   17.9210  -52.1190   23.7530 C   0  0  0  0  0  0  0  0  0  0  0  0
   19.5040  -53.9980   23.9490 C   0  0  0  0  0  0  0  0  0  0  0  0
   19.3580  -54.1260   25.2490 N   0  0  0  0  0  0  0  0  0  0  0  0
   21.1950  -56.9070   26.9160 N   0  0  0  0  0  0  0  0  0  0  0  0
   21.5870  -56.8640   24.5120 C   0  0  0  0  0  0  0  0  0  0  0  0
   19.9710  -56.5320   21.6350 C   0  0  0  0  0  0  0  0  0  0  0  0
   18.5790  -56.5510   21.8420 C   0  0  0  0  0  0  0  0  0  0  0  0
   18.4620  -58.8360   21.0860 C   0  0  0  0  0  0  0  0  0  0  0  0
   20.6010  -57.6890   21.1580 C   0  0  0  0  0  0  0  0  0  0  0  0
   22.5440  -58.5520   25.9730 N   0  0  0  0  0  0  0  0  0  0  0  0
   22.4010  -59.2850   27.2400 C   0  0  2  0  0  0  0  0  0  0  0  0
   23.3460  -60.4980   27.1970 C   0  0  0  0  0  0  0  0  0  0  0  0
   24.5160  -60.2190   26.4690 O   0  0  0  0  0  0  0  0  0  0  0  0
   22.1790  -55.1680   21.7140 C   0  0  0  0  0  0  0  0  0  0  0  0
   18.6260  -51.9220   21.0690 C   0  0  0  0  0  0  0  0  0  0  0  0
   18.8370  -52.9310   23.1570 C   0  0  0  0  0  0  0  0  0  0  0  0
   19.1750  -52.8330   21.8320 N   0  0  0  0  0  0  0  0  0  0  0  0
   18.9430  -51.8290   19.7660 N   0  0  0  0  0  0  0  0  0  0  0  0
   17.3480  -51.1370   22.9650 N   0  0  0  0  0  0  0  0  0  0  0  0
   17.6580  -51.0120   21.6340 C   0  0  0  0  0  0  0  0  0  0  0  0
   17.0020  -50.0120   21.1010 N   0  0  0  0  0  0  0  0  0  0  0  0
   16.2130  -49.4960   22.0800 N   0  0  0  0  0  0  0  0  0  0  0  0
   16.4300  -50.1480   23.2080 C   0  0  0  0  0  0  0  0  0  0  0  0
   15.8020  -49.8520   24.5310 C   0  0  0  0  0  0  0  0  0  0  0  0
   19.8640  -52.7460   19.0990 C   0  0  0  0  0  0  0  0  0  0  0  0
   19.1950  -54.0670   18.6960 C   0  0  0  0  0  0  0  0  0  0  0  0
   20.5370  -52.0370   17.9300 C   0  0  0  0  0  0  0  0  0  0  0  0
   19.8750  -55.5240   27.7430 H   0  0  0  0  0  0  0  0  0  0  0  0
   20.2010  -54.4680   21.3860 H   0  0  0  0  0  0  0  0  0  0  0  0
   16.7380  -57.6810   21.7360 H   0  0  0  0  0  0  0  0  0  0  0  0
   20.3400  -59.7450   20.5140 H   0  0  0  0  0  0  0  0  0  0  0  0
   25.0720  -59.5470   24.6450 H   0  0  0  0  0  0  0  0  0  0  0  0
   24.1910  -61.1190   24.6360 H   0  0  0  0  0  0  0  0  0  0  0  0
   23.0290  -58.7790   23.9370 H   0  0  0  0  0  0  0  0  0  0  0  0
   22.0780  -60.1130   24.6070 H   0  0  0  0  0  0  0  0  0  0  0  0
   21.0300  -60.6870   28.1630 H   0  0  0  0  0  0  0  0  0  0  0  0
   20.3610  -59.0360   28.0060 H   0  0  0  0  0  0  0  0  0  0  0  0
   20.4900  -60.0750   26.5740 H   0  0  0  0  0  0  0  0  0  0  0  0
   17.6440  -52.1740   24.7940 H   0  0  0  0  0  0  0  0  0  0  0  0
   22.0240  -57.2980   23.6170 H   0  0  0  0  0  0  0  0  0  0  0  0
   18.0700  -55.6610   22.2250 H   0  0  0  0  0  0  0  0  0  0  0  0
   17.8820  -59.7410   20.8860 H   0  0  0  0  0  0  0  0  0  0  0  0
   21.6820  -57.7340   20.9840 H   0  0  0  0  0  0  0  0  0  0  0  0
   22.7210  -58.6090   28.0470 H   0  0  0  0  0  0  0  0  0  0  0  0
   23.6450  -60.7730   28.2230 H   0  0  0  0  0  0  0  0  0  0  0  0
   22.8230  -61.3610   26.7350 H   0  0  0  0  0  0  0  0  0  0  0  0
   22.3540  -55.3720   20.6460 H   0  0  0  0  0  0  0  0  0  0  0  0
   22.5390  -54.1510   21.9280 H   0  0  0  0  0  0  0  0  0  0  0  0
   22.7550  -55.8760   22.3260 H   0  0  0  0  0  0  0  0  0  0  0  0
   18.4240  -51.1640   19.2110 H   0  0  0  0  0  0  0  0  0  0  0  0
   16.1580  -48.8780   24.9010 H   0  0  0  0  0  0  0  0  0  0  0  0
   14.7070  -49.7870   24.4280 H   0  0  0  0  0  0  0  0  0  0  0  0
   16.0550  -50.6270   25.2700 H   0  0  0  0  0  0  0  0  0  0  0  0
   20.6280  -52.9780   19.8460 H   0  0  0  0  0  0  0  0  0  0  0  0
   18.4110  -54.3540   19.4120 H   0  0  0  0  0  0  0  0  0  0  0  0
   18.7310  -53.9810   17.7030 H   0  0  0  0  0  0  0  0  0  0  0  0
   19.9370  -54.8800   18.6680 H   0  0  0  0  0  0  0  0  0  0  0  0
   21.0470  -51.1210   18.2630 H   0  0  0  0  0  0  0  0  0  0  0  0
   21.2840  -52.7050   17.4760 H   0  0  0  0  0  0  0  0  0  0  0  0
   19.7970  -51.7720   17.1570 H   0  0  0  0  0  0  0  0  0  0  0  0
  1  6  1  0  0  0  0
  2  1  1  0  0  0  0
  3 14  1  0  0  0  0
  3  2  2  0  0  0  0
  4  3  1  0  0  0  0
  5 16  2  0  0  0  0
  6 25  1  0  0  0  0
  6 17  1  0  0  0  0
  6 40  1  1  0  0  0
  7 19  1  0  0  0  0
  8 42  1  0  0  0  0
  9 43  1  0  0  0  0
  9 10  1  0  0  0  0
 10 45  1  0  0  0  0
 10 46  1  0  0  0  0
 11 22  1  0  0  0  0
 11 49  1  0  0  0  0
 11 48  1  0  0  0  0
 12 27  2  0  0  0  0
 12 30  1  0  0  0  0
 13  1  1  0  0  0  0
 13 27  1  0  0  0  0
 14 13  2  0  0  0  0
 15  4  2  0  0  0  0
 15  5  1  0  0  0  0
 16  2  1  0  0  0  0
 16 51  1  0  0  0  0
 17 20  2  0  0  0  0
 18 17  1  0  0  0  0
 18  7  2  0  0  0  0
 19  8  2  0  0  0  0
 19 53  1  0  0  0  0
 20 54  1  0  0  0  0
 20  8  1  0  0  0  0
 21  5  1  0  0  0  0
 21 10  1  0  0  0  0
 22 55  1  6  0  0  0
 22 21  1  0  0  0  0
 23 56  1  0  0  0  0
 23 22  1  0  0  0  0
 23 24  1  0  0  0  0
 24  9  1  0  0  0  0
 25 60  1  0  0  0  0
 26 29  1  0  0  0  0
 27 28  1  0  0  0  0
 28 26  2  0  0  0  0
 29 61  1  0  0  0  0
 29 36  1  0  0  0  0
 30 31  1  0  0  0  0
 31 32  2  0  0  0  0
 31 26  1  0  0  0  0
 33 32  1  0  0  0  0
 34 30  1  0  0  0  0
 34 33  2  0  0  0  0
 35 34  1  0  0  0  0
 36 37  1  0  0  0  0
 36 38  1  0  0  0  0
 37 68  1  0  0  0  0
 37 66  1  0  0  0  0
 38 70  1  0  0  0  0
 38 69  1  0  0  0  0
 39  4  1  0  0  0  0
 41  7  1  0  0  0  0
 44  9  1  0  0  0  0
 47 11  1  0  0  0  0
 50 12  1  0  0  0  0
 52 18  1  0  0  0  0
 57 23  1  0  0  0  0
 58 25  1  0  0  0  0
 59 25  1  0  0  0  0
 62 35  1  0  0  0  0
 63 35  1  0  0  0  0
 64 35  1  0  0  0  0
 65 36  1  0  0  0  0
 67 37  1  0  0  0  0
 71 38  1  0  0  0  0
 72 77  1  0  0  0  0
 73 72  1  0  0  0  0
 74 85  1  0  0  0  0
 74 73  2  0  0  0  0
 75 74  1  0  0  0  0
 76 87  2  0  0  0  0
 77 96  1  0  0  0  0
 77 88  1  0  0  0  0
 77111  1  1  0  0  0
 78 90  1  0  0  0  0
 79113  1  0  0  0  0
 80 81  1  0  0  0  0
 80114  1  0  0  0  0
 81116  1  0  0  0  0
 81117  1  0  0  0  0
 82120  1  0  0  0  0
 82119  1  0  0  0  0
 83 98  2  0  0  0  0
 83101  1  0  0  0  0
 84 72  1  0  0  0  0
 84 98  1  0  0  0  0
 85 84  2  0  0  0  0
 86 75  2  0  0  0  0
 86 76  1  0  0  0  0
 87 73  1  0  0  0  0
 87122  1  0  0  0  0
 88 91  2  0  0  0  0
 89 78  2  0  0  0  0
 89 88  1  0  0  0  0
 90124  1  0  0  0  0
 90 79  2  0  0  0  0
 91125  1  0  0  0  0
 91 79  1  0  0  0  0
 92 76  1  0  0  0  0
 92 81  1  0  0  0  0
 93126  1  6  0  0  0
 93 82  1  0  0  0  0
 93 92  1  0  0  0  0
 94 93  1  0  0  0  0
 94 95  1  0  0  0  0
 95 80  1  0  0  0  0
 96131  1  0  0  0  0
 97100  1  0  0  0  0
 98 99  1  0  0  0  0
 99 97  2  0  0  0  0
100132  1  0  0  0  0
100107  1  0  0  0  0
101102  1  0  0  0  0
102103  2  0  0  0  0
102 97  1  0  0  0  0
104103  1  0  0  0  0
105101  1  0  0  0  0
105104  2  0  0  0  0
106135  1  0  0  0  0
106105  1  0  0  0  0
107108  1  0  0  0  0
107109  1  0  0  0  0
108139  1  0  0  0  0
108137  1  0  0  0  0
109141  1  0  0  0  0
109140  1  0  0  0  0
110 75  1  0  0  0  0
112 78  1  0  0  0  0
115 80  1  0  0  0  0
118 82  1  0  0  0  0
121 83  1  0  0  0  0
123 89  1  0  0  0  0
127 94  1  0  0  0  0
128 94  1  0  0  0  0
129 96  1  0  0  0  0
130 96  1  0  0  0  0
133106  1  0  0  0  0
134106  1  0  0  0  0
136107  1  0  0  0  0
138108  1  0  0  0  0
142109  1  0  0  0  0
143155  1  0  0  0  0
143144  1  0  0  0  0
144158  2  0  0  0  0
144145  1  0  0  0  0
145146  2  0  0  0  0
146157  1  0  0  0  0
146181  1  0  0  0  0
147163  1  0  0  0  0
147157  2  0  0  0  0
148182  1  6  0  0  0
148143  1  0  0  0  0
149183  1  0  0  0  0
149160  1  0  0  0  0
150161  1  0  0  0  0
150162  2  0  0  0  0
151185  1  0  0  0  0
151166  1  0  0  0  0
152151  1  0  0  0  0
152163  1  0  0  0  0
153164  1  0  0  0  0
153190  1  0  0  0  0
154192  1  0  0  0  0
155156  2  0  0  0  0
156145  1  0  0  0  0
158147  1  0  0  0  0
159160  2  0  0  0  0
159148  1  0  0  0  0
160194  1  0  0  0  0
161149  2  0  0  0  0
162159  1  0  0  0  0
163164  1  0  0  0  0
164165  1  0  0  0  0
164197  1  1  0  0  0
165198  1  0  0  0  0
165199  1  0  0  0  0
166165  1  0  0  0  0
167202  1  0  0  0  0
167148  1  0  0  0  0
167200  1  0  0  0  0
168173  1  0  0  0  0
168170  2  0  0  0  0
169154  2  0  0  0  0
169155  1  0  0  0  0
170169  1  0  0  0  0
171168  1  0  0  0  0
172176  1  0  0  0  0
172154  1  0  0  0  0
173172  1  0  0  0  0
174173  2  0  0  0  0
174175  1  0  0  0  0
175176  2  0  0  0  0
176177  1  0  0  0  0
177205  1  0  0  0  0
177206  1  0  0  0  0
178207  1  0  0  0  0
178171  1  0  0  0  0
179178  1  0  0  0  0
179208  1  0  0  0  0
180213  1  0  0  0  0
180178  1  0  0  0  0
184150  1  0  0  0  0
186151  1  0  0  0  0
187152  1  0  0  0  0
188152  1  0  0  0  0
189153  1  0  0  0  0
191153  1  0  0  0  0
193158  1  0  0  0  0
195161  1  0  0  0  0
196162  1  0  0  0  0
201167  1  0  0  0  0
203171  1  0  0  0  0
204177  1  0  0  0  0
209179  1  0  0  0  0
210179  1  0  0  0  0
211180  1  0  0  0  0
212180  1  0  0  0  0
214226  1  0  0  0  0
214215  1  0  0  0  0
215229  2  0  0  0  0
215216  1  0  0  0  0
216217  2  0  0  0  0
217228  1  0  0  0  0
217252  1  0  0  0  0
218234  1  0  0  0  0
218228  2  0  0  0  0
219253  1  6  0  0  0
219214  1  0  0  0  0
220254  1  0  0  0  0
220231  1  0  0  0  0
221232  1  0  0  0  0
221233  2  0  0  0  0
222237  1  0  0  0  0
223222  1  0  0  0  0
223234  1  0  0  0  0
224261  1  0  0  0  0
224260  1  0  0  0  0
225263  1  0  0  0  0
226227  2  0  0  0  0
227216  1  0  0  0  0
229218  1  0  0  0  0
230231  2  0  0  0  0
230219  1  0  0  0  0
231265  1  0  0  0  0
232220  2  0  0  0  0
233230  1  0  0  0  0
234235  1  0  0  0  0
235224  1  0  0  0  0
235268  1  1  0  0  0
236235  1  0  0  0  0
236269  1  0  0  0  0
237236  1  0  0  0  0
238272  1  0  0  0  0
238219  1  0  0  0  0
238273  1  0  0  0  0
239244  1  0  0  0  0
239241  2  0  0  0  0
240225  2  0  0  0  0
240226  1  0  0  0  0
241240  1  0  0  0  0
242239  1  0  0  0  0
243247  1  0  0  0  0
243225  1  0  0  0  0
244243  1  0  0  0  0
245244  2  0  0  0  0
245246  1  0  0  0  0
246247  2  0  0  0  0
247248  1  0  0  0  0
248275  1  0  0  0  0
248277  1  0  0  0  0
249242  1  0  0  0  0
249278  1  0  0  0  0
250249  1  0  0  0  0
250279  1  0  0  0  0
251282  1  0  0  0  0
251249  1  0  0  0  0
255221  1  0  0  0  0
256222  1  0  0  0  0
257222  1  0  0  0  0
258223  1  0  0  0  0
259223  1  0  0  0  0
262224  1  0  0  0  0
264229  1  0  0  0  0
266232  1  0  0  0  0
267233  1  0  0  0  0
270236  1  0  0  0  0
271238  1  0  0  0  0
274242  1  0  0  0  0
276248  1  0  0  0  0
280250  1  0  0  0  0
281250  1  0  0  0  0
283251  1  0  0  0  0
284251  1  0  0  0  0
M  END
$$$$
