/Users/chinazoemeh/HopeMScP/data/ligands/BRD4-BD1_BRD4-BD1_42_7MR7/BRD4-BD1_BRD4-BD1_42_7MR7.pdb
 OpenBabel07142514423D

 12  9  0  0  0  0  0  0  0  0999 V2000
  -16.6920   -1.6200  -18.4900 C   0  0  0  0  0  0  0  0  0  0  0  0
  -16.5990   -2.8040  -19.2860 O   0  0  0  0  0  0  0  0  0  0  0  0
  -15.4250   -0.8050  -18.6910 C   0  0  0  0  0  0  0  0  0  0  0  0
  -14.3460   -1.5500  -18.1300 O   0  0  0  0  0  0  0  0  0  0  0  0
   -3.4700    8.5250   22.5850 C   0  0  0  0  0  0  0  0  0  0  0  0
   -2.9370    7.2950   22.0850 O   0  0  0  0  0  0  0  0  0  0  0  0
   -4.1740    9.2690   21.4550 C   0  0  0  0  0  0  0  0  0  0  0  0
   -5.2560    8.4720   20.9410 O   0  0  0  0  0  0  0  0  0  0  0  0
   -5.1540   14.9490   -0.0620 C   0  0  0  0  0  0  0  0  0  0  0  0
   -3.8950   15.4700   -0.4890 O   0  0  0  0  0  0  0  0  0  0  0  0
   -6.0270   16.1420    0.3080 C   0  0  0  0  0  0  0  0  0  0  0  0
   -6.1170   17.0500   -0.8010 O   0  0  0  0  0  0  0  0  0  0  0  0
  2  1  1  0  0  0  0
  3  1  1  0  0  0  0
  3  4  1  0  0  0  0
  6  5  1  0  0  0  0
  7  5  1  0  0  0  0
  8  7  1  0  0  0  0
  9 11  1  0  0  0  0
 10  9  1  0  0  0  0
 12 11  1  0  0  0  0
M  END
$$$$
