/Users/chinazoemeh/HopeMScP/data/ligands/BRD4-BD1_BRD4-BD1_89_6KEH/BRD4-BD1_BRD4-BD1_89_6KEH.pdb
 OpenBabel07142514433D

 12  8  0  0  0  0  0  0  0  0999 V2000
   -8.4890  -14.1640   88.7960 C   0  0  0  0  0  0  0  0  0  0  0  0
   -7.8880  -13.0890   88.8250 O   0  0  0  0  0  0  0  0  0  0  0  0
   -9.6260  -14.3500   89.2500 O   0  0  0  0  0  0  0  0  0  0  0  0
  -20.9680   17.8640   97.2660 C   0  0  0  0  0  0  0  0  0  0  0  0
  -21.4820   16.7520   97.2390 O   0  0  0  0  0  0  0  0  0  0  0  0
  -19.7750   18.0650   97.0710 O   0  0  0  0  0  0  0  0  0  0  0  0
  -23.9270   20.9550   98.1520 C   0  0  0  0  0  0  0  0  0  0  0  0
  -24.7330   20.8820   99.0870 O   0  0  0  0  0  0  0  0  0  0  0  0
  -23.8580   20.1470   97.2180 O   0  0  0  0  0  0  0  0  0  0  0  0
  -18.5050   24.9710   84.4630 C   0  0  0  0  0  0  0  0  0  0  0  0
  -19.4790   25.4360   83.8690 O   0  0  0  0  0  0  0  0  0  0  0  0
  -17.6570   24.2520   83.9310 O   0  0  0  0  0  0  0  0  0  0  0  0
  1  2  1  0  0  0  0
  1  3  2  0  0  0  0
  5  4  2  0  0  0  0
  6  4  1  0  0  0  0
  7  8  2  0  0  0  0
  9  7  1  0  0  0  0
 11 10  1  0  0  0  0
 12 10  2  0  0  0  0
M  END
$$$$
