/Users/chinazoemeh/HopeMScP/data/ligands/BRD4-BD1_BRD4-BD1_14_6LIM/BRD4-BD1_BRD4-BD1_14_6LIM.pdb
 OpenBabel07142514423D

 59 63  0  0  1  0  0  0  0  0999 V2000
  -13.1380   -9.2720    1.6530 C   0  0  0  0  0  0  0  0  0  0  0  0
  -10.7800   -7.6950   -0.0380 C   0  0  0  0  0  0  0  0  0  0  0  0
   -8.2190   -9.8730    2.1000 C   0  0  0  0  0  0  0  0  0  0  0  0
   -8.8960   -9.7080    3.4510 C   0  0  0  0  0  0  0  0  0  0  0  0
   -9.1600   -8.4130    3.9920 C   0  0  0  0  0  0  0  0  0  0  0  0
   -9.0670   -5.9620    3.9510 C   0  0  0  0  0  0  0  0  0  0  0  0
  -10.0870   -7.1230    5.8100 C   0  0  0  0  0  0  0  0  0  0  0  0
  -10.1750   -9.6060    5.8480 C   0  0  0  0  0  0  0  0  0  0  0  0
  -13.0840   -3.6620   -1.7090 C   0  0  0  0  0  0  0  0  0  0  0  0
  -11.9760   -5.8580   -1.0170 C   0  0  0  0  0  0  0  0  0  0  0  0
  -10.9900   -5.7290   -2.0080 C   0  0  0  0  0  0  0  0  0  0  0  0
   -9.8940   -6.5700   -1.9750 C   0  0  0  0  0  0  0  0  0  0  0  0
  -11.8990   -6.8340   -0.0570 C   0  0  0  0  0  0  0  0  0  0  0  0
  -12.7760   -7.8430    2.0610 C   0  0  0  0  0  0  0  0  0  0  0  0
  -13.5360   -7.3540    3.2790 C   0  0  0  0  0  0  0  0  0  0  0  0
  -14.2770   -6.6990    0.3380 C   0  0  2  0  0  0  0  0  0  0  0  0
  -14.7290   -7.7210   -0.7150 C   0  0  0  0  0  0  0  0  0  0  0  0
   -9.7800   -7.5350   -1.0150 C   0  0  0  0  0  0  0  0  0  0  0  0
   -8.0970   -9.1870   -0.0810 C   0  0  0  0  0  0  0  0  0  0  0  0
   -6.6900  -10.8480    0.5750 C   0  0  0  0  0  0  0  0  0  0  0  0
   -7.2290  -10.8100    1.8590 C   0  0  0  0  0  0  0  0  0  0  0  0
   -8.7860   -7.2020    3.3540 C   0  0  0  0  0  0  0  0  0  0  0  0
   -9.7230   -5.9390    5.1890 C   0  0  0  0  0  0  0  0  0  0  0  0
   -9.8030   -8.3750    5.2100 C   0  0  0  0  0  0  0  0  0  0  0  0
   -9.2970  -10.8490    4.1410 C   0  0  0  0  0  0  0  0  0  0  0  0
  -14.3300   -5.2950   -0.3770 C   0  0  0  0  0  0  0  0  0  0  0  0
  -13.1330   -4.9520   -1.0490 N   0  0  0  0  0  0  0  0  0  0  0  0
  -12.9740   -6.9580    0.9010 N   0  0  0  0  0  0  0  0  0  0  0  0
   -8.5670   -8.3380   -1.1270 N   0  0  0  0  0  0  0  0  0  0  0  0
   -7.1350  -10.0410   -0.3750 N   0  0  0  0  0  0  0  0  0  0  0  0
   -9.9150  -10.7950    5.3050 N   0  0  0  0  0  0  0  0  0  0  0  0
   -8.6270   -9.1020    1.1230 N   0  0  0  0  0  0  0  0  0  0  0  0
  -15.2410   -4.5470   -0.3890 O   0  0  0  0  0  0  0  0  0  0  0  0
  -12.8820   -9.4190    0.7290 H   0  0  0  0  0  0  0  0  0  0  0  0
  -14.0940   -9.4040    1.7490 H   0  0  0  0  0  0  0  0  0  0  0  0
  -12.6670   -9.9000    2.2230 H   0  0  0  0  0  0  0  0  0  0  0  0
  -10.7080   -8.3610    0.6060 H   0  0  0  0  0  0  0  0  0  0  0  0
   -8.8280   -5.1690    3.5290 H   0  0  0  0  0  0  0  0  0  0  0  0
  -10.5160   -7.0950    6.6350 H   0  0  0  0  0  0  0  0  0  0  0  0
  -10.6030   -9.5730    6.6730 H   0  0  0  0  0  0  0  0  0  0  0  0
  -12.1650   -3.4450   -1.9290 H   0  0  0  0  0  0  0  0  0  0  0  0
  -13.4440   -2.9830   -1.1170 H   0  0  0  0  0  0  0  0  0  0  0  0
  -13.6120   -3.6950   -2.5220 H   0  0  0  0  0  0  0  0  0  0  0  0
  -11.0470   -5.0540   -2.6450 H   0  0  0  0  0  0  0  0  0  0  0  0
   -9.2190   -6.4700   -2.6080 H   0  0  0  0  0  0  0  0  0  0  0  0
  -11.8310   -7.8310    2.2810 H   0  0  0  0  0  0  0  0  0  0  0  0
  -14.4820   -7.2990    3.0700 H   0  0  0  0  0  0  0  0  0  0  0  0
  -13.2100   -6.4770    3.5330 H   0  0  0  0  0  0  0  0  0  0  0  0
  -13.4030   -7.9740    4.0130 H   0  0  0  0  0  0  0  0  0  0  0  0
  -14.9230   -6.6940    1.0620 H   0  0  0  0  0  0  0  0  0  0  0  0
  -14.1310   -7.6840   -1.4780 H   0  0  0  0  0  0  0  0  0  0  0  0
  -15.6320   -7.5120   -1.0020 H   0  0  0  0  0  0  0  0  0  0  0  0
  -14.7090   -8.6110   -0.3310 H   0  0  0  0  0  0  0  0  0  0  0  0
   -6.0160  -11.4580    0.3790 H   0  0  0  0  0  0  0  0  0  0  0  0
   -6.9100  -11.3640    2.5350 H   0  0  0  0  0  0  0  0  0  0  0  0
   -8.3570   -7.2290    2.5290 H   0  0  0  0  0  0  0  0  0  0  0  0
   -9.9150   -5.1250    5.5960 H   0  0  0  0  0  0  0  0  0  0  0  0
   -9.1280  -11.6820    3.7630 H   0  0  0  0  0  0  0  0  0  0  0  0
   -8.1150   -8.2980   -1.8570 H   0  0  0  0  0  0  0  0  0  0  0  0
  1 35  1  0  0  0  0
  1 14  1  0  0  0  0
  1 36  1  0  0  0  0
  2 37  1  0  0  0  0
  3  4  1  0  0  0  0
  4  5  2  0  0  0  0
  4 25  1  0  0  0  0
  5 24  1  0  0  0  0
  6 23  1  0  0  0  0
  7 39  1  0  0  0  0
  8 40  1  0  0  0  0
  9 42  1  0  0  0  0
  9 27  1  0  0  0  0
 10 13  2  0  0  0  0
 11 12  2  0  0  0  0
 11 10  1  0  0  0  0
 12 18  1  0  0  0  0
 13  2  1  0  0  0  0
 13 28  1  0  0  0  0
 14 46  1  0  0  0  0
 14 15  1  0  0  0  0
 15 48  1  0  0  0  0
 15 49  1  0  0  0  0
 16 28  1  0  0  0  0
 16 50  1  1  0  0  0
 17 53  1  0  0  0  0
 17 16  1  0  0  0  0
 18  2  2  0  0  0  0
 19 32  1  0  0  0  0
 20 21  2  0  0  0  0
 21  3  1  0  0  0  0
 21 55  1  0  0  0  0
 22  6  2  0  0  0  0
 22  5  1  0  0  0  0
 23 57  1  0  0  0  0
 23  7  2  0  0  0  0
 24  7  1  0  0  0  0
 24  8  2  0  0  0  0
 25 31  2  0  0  0  0
 26 16  1  0  0  0  0
 27 10  1  0  0  0  0
 27 26  1  0  0  0  0
 28 14  1  0  0  0  0
 29 18  1  0  0  0  0
 29 19  1  0  0  0  0
 30 19  2  0  0  0  0
 30 20  1  0  0  0  0
 31  8  1  0  0  0  0
 32  3  2  0  0  0  0
 33 26  2  0  0  0  0
 34  1  1  0  0  0  0
 38  6  1  0  0  0  0
 41  9  1  0  0  0  0
 43  9  1  0  0  0  0
 44 11  1  0  0  0  0
 45 12  1  0  0  0  0
 47 15  1  0  0  0  0
 51 17  1  0  0  0  0
 52 17  1  0  0  0  0
 54 20  1  0  0  0  0
 56 22  1  0  0  0  0
 58 25  1  0  0  0  0
 59 29  1  0  0  0  0
M  END
$$$$
