/Users/chinazoemeh/HopeMScP/data/ligands/BRD4-BD1_BRD4-BD1_54_5U2F/BRD4-BD1_BRD4-BD1_54_5U2F.pdb
 OpenBabel07142514423D

 52 58  0  0  1  0  0  0  0  0999 V2000
   27.3250  -11.7820   -4.3930 C   0  0  0  0  0  0  0  0  0  0  0  0
   26.9040  -16.0280   -2.8870 C   0  0  0  0  0  0  0  0  0  0  0  0
   28.8660  -17.2730   -3.8380 C   0  0  2  0  0  0  0  0  0  0  0  0
   31.3070  -18.0500   -4.1210 C   0  0  0  0  0  0  0  0  0  0  0  0
   30.6600  -15.8720   -5.0090 C   0  0  0  0  0  0  0  0  0  0  0  0
   27.6140   -7.9900   -6.5080 O   0  0  0  0  0  0  0  0  0  0  0  0
   27.5390   -9.1970   -5.7900 N   0  0  0  0  0  0  0  0  0  0  0  0
   26.2490   -9.8380   -5.5810 C   0  0  0  0  0  0  0  0  0  0  0  0
   25.2600   -9.3460   -6.0130 O   0  0  0  0  0  0  0  0  0  0  0  0
   26.1600  -11.1510   -4.8000 C   0  0  0  0  0  0  0  0  0  0  0  0
   24.9190  -11.7040   -4.5010 C   0  0  0  0  0  0  0  0  0  0  0  0
   24.8440  -12.8960   -3.7950 C   0  0  0  0  0  0  0  0  0  0  0  0
   26.0140  -13.5230   -3.3860 C   0  0  0  0  0  0  0  0  0  0  0  0
   27.2490  -12.9700   -3.6860 C   0  0  0  0  0  0  0  0  0  0  0  0
   25.9730  -14.8350   -2.6040 C   0  0  0  0  0  0  0  0  0  0  0  0
   25.0920  -15.1510   -1.4880 C   0  0  0  0  0  0  0  0  0  0  0  0
   25.4220  -16.6720   -0.9650 S   0  0  0  0  0  0  0  0  0  0  0  0
   26.6240  -17.1140   -1.9700 C   0  0  0  0  0  0  0  0  0  0  0  0
   27.9630  -16.1230   -3.9440 O   0  0  0  0  0  0  0  0  0  0  0  0
   28.5380  -18.4210   -2.9180 C   0  0  0  0  0  0  0  0  0  0  0  0
   27.3910  -18.3580   -2.0590 C   0  0  0  0  0  0  0  0  0  0  0  0
   27.0690  -19.3070   -1.4250 O   0  0  0  0  0  0  0  0  0  0  0  0
   30.2240  -17.0840   -4.3100 N   0  0  0  0  0  0  0  0  0  0  0  0
   32.2530  -18.1690   -5.3110 C   0  0  0  0  0  0  0  0  0  0  0  0
   32.6890  -16.9400   -5.7710 O   0  0  0  0  0  0  0  0  0  0  0  0
   31.6320  -16.1350   -6.1560 C   0  0  0  0  0  0  0  0  0  0  0  0
   -4.5980    1.5560   36.4870 C   0  0  0  0  0  0  0  0  0  0  0  0
   -3.4610   -2.5400   34.9800 C   0  0  0  0  0  0  0  0  0  0  0  0
   -5.6540   -3.7200   34.6540 C   0  0  0  0  0  0  0  0  0  0  0  0
   -7.8200   -2.9720   35.8030 C   0  0  0  0  0  0  0  0  0  0  0  0
   -7.9960   -4.6060   34.0150 C   0  0  0  0  0  0  0  0  0  0  0  0
   -5.0960    4.5090   36.0040 O   0  0  0  0  0  0  0  0  0  0  0  0
   -4.8010    4.5750   37.3770 N   0  0  0  0  0  0  0  0  0  0  0  0
   -4.1270    3.4840   38.0650 C   0  0  0  0  0  0  0  0  0  0  0  0
   -3.8940    3.5790   39.2240 O   0  0  0  0  0  0  0  0  0  0  0  0
   -3.7050    2.2100   37.3250 C   0  0  0  0  0  0  0  0  0  0  0  0
   -2.4220    1.7090   37.5090 C   0  0  0  0  0  0  0  0  0  0  0  0
   -2.0280    0.5540   36.8510 C   0  0  0  0  0  0  0  0  0  0  0  0
   -2.9190   -0.0930   36.0050 C   0  0  0  0  0  0  0  0  0  0  0  0
   -4.2030    0.4030   35.8270 C   0  0  0  0  0  0  0  0  0  0  0  0
   -2.5010   -1.3710   35.2770 C   0  0  0  0  0  0  0  0  0  0  0  0
   -1.1740   -1.6830   34.7620 C   0  0  0  0  0  0  0  0  0  0  0  0
   -1.2090   -3.1700   34.0650 S   0  0  0  0  0  0  0  0  0  0  0  0
   -2.7630   -3.5980   34.2820 C   0  0  0  0  0  0  0  0  0  0  0  0
   -4.9170   -2.6470   35.3310 O   0  0  0  0  0  0  0  0  0  0  0  0
   -4.9200   -4.8130   33.9230 C   0  0  0  0  0  0  0  0  0  0  0  0
   -3.4850   -4.8130   33.9020 C   0  0  0  0  0  0  0  0  0  0  0  0
   -2.8920   -5.7890   33.5890 O   0  0  0  0  0  0  0  0  0  0  0  0
   -7.0960   -3.7670   34.8090 N   0  0  0  0  0  0  0  0  0  0  0  0
   -9.0830   -2.3210   35.2450 C   0  0  0  0  0  0  0  0  0  0  0  0
   -9.9020   -3.2230   34.5860 O   0  0  0  0  0  0  0  0  0  0  0  0
   -9.2530   -3.8730   33.5500 C   0  0  0  0  0  0  0  0  0  0  0  0
  1 14  1  0  0  0  0
  2 15  1  0  0  0  0
  2 18  2  0  0  0  0
  3 23  1  1  0  0  0
  3 20  1  0  0  0  0
  5 23  1  0  0  0  0
  6  7  1  0  0  0  0
  7  8  1  0  0  0  0
  8 10  1  0  0  0  0
  9  8  2  0  0  0  0
 10 11  1  0  0  0  0
 10  1  2  0  0  0  0
 11 12  2  0  0  0  0
 12 13  1  0  0  0  0
 13 15  1  0  0  0  0
 14 13  2  0  0  0  0
 15 16  2  0  0  0  0
 16 17  1  0  0  0  0
 18 17  1  0  0  0  0
 19  3  1  0  0  0  0
 19  2  1  0  0  0  0
 20 21  1  0  0  0  0
 21 18  1  0  0  0  0
 21 22  2  0  0  0  0
 23  4  1  0  0  0  0
 24  4  1  0  0  0  0
 25 24  1  0  0  0  0
 26 25  1  0  0  0  0
 26  5  1  0  0  0  0
 27 36  1  0  0  0  0
 28 41  1  0  0  0  0
 28 45  1  0  0  0  0
 29 49  1  0  0  0  0
 29 45  1  0  0  0  0
 31 49  1  0  0  0  0
 32 33  1  0  0  0  0
 33 34  1  0  0  0  0
 34 35  2  0  0  0  0
 36 37  2  0  0  0  0
 36 34  1  0  0  0  0
 38 37  1  0  0  0  0
 39 38  2  0  0  0  0
 40 39  1  0  0  0  0
 40 27  2  0  0  0  0
 41 39  1  0  0  0  0
 42 41  2  0  0  0  0
 43 44  1  0  0  0  0
 43 42  1  0  0  0  0
 44 28  2  0  0  0  0
 46 29  2  0  0  0  0
 47 46  1  0  0  0  0
 47 44  1  0  0  0  0
 48 47  2  0  0  0  0
 49 30  1  0  0  0  0
 50 30  1  0  0  0  0
 51 50  1  0  0  0  0
 52 31  1  0  0  0  0
 52 51  1  0  0  0  0
M  END
$$$$
