/Users/chinazoemeh/HopeMScP/data/ligands/BRD4-BD1_BRD4-BD1_78_6XUZ/BRD4-BD1_BRD4-BD1_78_6XUZ.pdb
 OpenBabel07142514423D

136 48  0  0  0  0  0  0  0  0999 V2000
    5.9050    9.3070   20.6940 C   0  0  0  0  0  0  0  0  0  0  0  0
    5.9070    9.3070   20.6920 C   0  0  0  0  0  0  0  0  0  0  0  0
    5.8340   11.6460   21.3100 C   0  0  0  0  0  0  0  0  0  0  0  0
    5.8320   11.6450   21.3070 C   0  0  0  0  0  0  0  0  0  0  0  0
    6.4140   12.7760   20.9450 N   0  0  0  0  0  0  0  0  0  0  0  0
    6.4120   12.7750   20.9430 N   0  0  0  0  0  0  0  0  0  0  0  0
    7.9940   10.4260   18.6520 C   0  0  0  0  0  0  0  0  0  0  0  0
    7.9960   10.4250   18.6520 C   0  0  0  0  0  0  0  0  0  0  0  0
    3.5150    5.8280   22.5840 C   0  0  0  0  0  0  0  0  0  0  0  0
    3.5250    5.8370   22.5780 C   0  0  0  0  0  0  0  0  0  0  0  0
    2.8820    4.8230   23.3000 C   0  0  0  0  0  0  0  0  0  0  0  0
    2.9010    4.8410   23.3030 C   0  0  0  0  0  0  0  0  0  0  0  0
    4.6740    7.1790   25.2630 C   0  0  0  0  0  0  0  0  0  0  0  0
    4.6760    7.1770   25.2590 C   0  0  0  0  0  0  0  0  0  0  0  0
    4.1890   11.4340   25.3530 C   0  0  0  0  0  0  0  0  0  0  0  0
    4.1910   11.4350   25.3520 C   0  0  0  0  0  0  0  0  0  0  0  0
    0.5840    1.5760   21.6190 C   0  0  0  0  0  0  0  0  0  0  0  0
    1.0280    1.6380   25.2450 C   0  0  0  0  0  0  0  0  0  0  0  0
    2.6350    3.6280   22.6200 C   0  0  0  0  0  0  0  0  0  0  0  0
    2.6500    3.6430   22.6330 C   0  0  0  0  0  0  0  0  0  0  0  0
    7.2370   11.1790   19.6810 C   0  0  0  0  0  0  0  0  0  0  0  0
    7.2390   11.1770   19.6810 C   0  0  0  0  0  0  0  0  0  0  0  0
    3.7440    7.7910   24.2530 C   0  0  0  0  0  0  0  0  0  0  0  0
    3.7510    7.7930   24.2470 C   0  0  0  0  0  0  0  0  0  0  0  0
    3.9330    5.6690   21.2620 C   0  0  0  0  0  0  0  0  0  0  0  0
    3.9420    5.6720   21.2580 C   0  0  0  0  0  0  0  0  0  0  0  0
    3.6420    4.4330   20.7140 C   0  0  0  0  0  0  0  0  0  0  0  0
    3.6500    4.4310   20.7200 C   0  0  0  0  0  0  0  0  0  0  0  0
    5.0120    8.9960   21.6700 C   0  0  0  0  0  0  0  0  0  0  0  0
    5.0070    8.9990   21.6640 C   0  0  0  0  0  0  0  0  0  0  0  0
    3.4390   12.0140   24.1680 C   0  0  0  0  0  0  0  0  0  0  0  0
    3.4380   12.0150   24.1680 C   0  0  0  0  0  0  0  0  0  0  0  0
    2.7620   13.3140   24.5370 C   0  0  0  0  0  0  0  0  0  0  0  0
    2.7610   13.3150   24.5390 C   0  0  0  0  0  0  0  0  0  0  0  0
    1.7850    1.3420   22.4580 C   0  0  0  0  0  0  0  0  0  0  0  0
    1.1820    2.8870   24.4190 C   0  0  0  0  0  0  0  0  0  0  0  0
    4.5130    7.6510   21.8230 C   0  0  0  0  0  0  0  0  0  0  0  0
    4.5170    7.6560   21.8140 C   0  0  0  0  0  0  0  0  0  0  0  0
   -0.3600    2.9000   23.3140 C   0  0  0  0  0  0  0  0  0  0  0  0
    1.6380    0.2590   23.4780 C   0  0  0  0  0  0  0  0  0  0  0  0
    0.8920    2.8050   24.1480 C   0  0  0  0  0  0  0  0  0  0  0  0
    1.6960    1.3910   22.4960 C   0  0  0  0  0  0  0  0  0  0  0  0
    6.9460    7.1790   25.8140 C   0  0  0  0  0  0  0  0  0  0  0  0
    6.9450    7.1800   25.8140 C   0  0  0  0  0  0  0  0  0  0  0  0
    1.6130    0.1290   23.3540 C   0  0  0  0  0  0  0  0  0  0  0  0
   -0.1140    3.5450   24.0000 C   0  0  0  0  0  0  0  0  0  0  0  0
    2.3050    7.8340   24.7240 C   0  0  0  0  0  0  0  0  0  0  0  0
    2.3110    7.8370   24.7200 C   0  0  0  0  0  0  0  0  0  0  0  0
    4.8680   11.2150   22.2890 C   0  0  0  0  0  0  0  0  0  0  0  0
    4.8660   11.2180   22.2890 C   0  0  0  0  0  0  0  0  0  0  0  0
    4.4190    9.9870   22.4650 N   0  0  0  0  0  0  0  0  0  0  0  0
    4.4160    9.9910   22.4620 N   0  0  0  0  0  0  0  0  0  0  0  0
    4.3740   12.2370   23.0600 N   0  0  0  0  0  0  0  0  0  0  0  0
    4.3710   12.2400   23.0590 N   0  0  0  0  0  0  0  0  0  0  0  0
    7.3240   12.4610   19.9330 N   0  0  0  0  0  0  0  0  0  0  0  0
    7.3280   12.4590   19.9350 N   0  0  0  0  0  0  0  0  0  0  0  0
    3.0060    3.4390   21.3430 N   0  0  0  0  0  0  0  0  0  0  0  0
    3.0110    3.4440   21.3570 N   0  0  0  0  0  0  0  0  0  0  0  0
    2.0180    2.5710   23.2380 N   0  0  0  0  0  0  0  0  0  0  0  0
    2.0420    2.5950   23.2560 N   0  0  0  0  0  0  0  0  0  0  0  0
    4.5330    6.8330   20.7970 N   0  0  0  0  0  0  0  0  0  0  0  0
    4.5380    6.8340   20.7890 N   0  0  0  0  0  0  0  0  0  0  0  0
    3.8790    7.1320   22.9250 N   0  0  0  0  0  0  0  0  0  0  0  0
    3.8880    7.1380   22.9160 N   0  0  0  0  0  0  0  0  0  0  0  0
    6.3000   10.6100   20.5160 N   0  0  0  0  0  0  0  0  0  0  0  0
    6.2960   10.6100   20.5100 N   0  0  0  0  0  0  0  0  0  0  0  0
   -0.5440    1.7470   22.4810 O   0  0  0  0  0  0  0  0  0  0  0  0
    0.6640    0.4970   24.4910 O   0  0  0  0  0  0  0  0  0  0  0  0
    5.9850    7.4360   24.8190 O   0  0  0  0  0  0  0  0  0  0  0  0
    5.9860    7.4410   24.8200 O   0  0  0  0  0  0  0  0  0  0  0  0
    6.3310    8.5620   20.0230 H   0  0  0  0  0  0  0  0  0  0  0  0
    6.3310    8.5610   20.0210 H   0  0  0  0  0  0  0  0  0  0  0  0
    8.6750   11.0790   18.1080 H   0  0  0  0  0  0  0  0  0  0  0  0
    8.6760   11.0790   18.1090 H   0  0  0  0  0  0  0  0  0  0  0  0
    7.3220    9.9820   17.9180 H   0  0  0  0  0  0  0  0  0  0  0  0
    7.3220    9.9820   17.9190 H   0  0  0  0  0  0  0  0  0  0  0  0
    8.5760    9.6130   19.0820 H   0  0  0  0  0  0  0  0  0  0  0  0
    8.5770    9.6110   19.0820 H   0  0  0  0  0  0  0  0  0  0  0  0
    2.6110    4.9460   24.3460 H   0  0  0  0  0  0  0  0  0  0  0  0
    2.6680    5.0190   24.3490 H   0  0  0  0  0  0  0  0  0  0  0  0
    4.4730    6.1100   25.3180 H   0  0  0  0  0  0  0  0  0  0  0  0
    4.4760    6.1080   25.3140 H   0  0  0  0  0  0  0  0  0  0  0  0
    4.4940    7.5800   26.2590 H   0  0  0  0  0  0  0  0  0  0  0  0
    4.4950    7.5770   26.2560 H   0  0  0  0  0  0  0  0  0  0  0  0
    4.7380   10.5220   25.1330 H   0  0  0  0  0  0  0  0  0  0  0  0
    4.7380   10.5220   25.1330 H   0  0  0  0  0  0  0  0  0  0  0  0
    3.5410   11.2230   26.2020 H   0  0  0  0  0  0  0  0  0  0  0  0
    3.5420   11.2240   26.2010 H   0  0  0  0  0  0  0  0  0  0  0  0
    4.9550   12.1220   25.7050 H   0  0  0  0  0  0  0  0  0  0  0  0
    4.9560   12.1240   25.7050 H   0  0  0  0  0  0  0  0  0  0  0  0
    0.3390    0.7290   20.9790 H   0  0  0  0  0  0  0  0  0  0  0  0
    0.2340    1.7580   25.9790 H   0  0  0  0  0  0  0  0  0  0  0  0
    0.7500    2.4320   20.9660 H   0  0  0  0  0  0  0  0  0  0  0  0
    1.9270    1.4380   25.8260 H   0  0  0  0  0  0  0  0  0  0  0  0
    4.0360    8.8280   24.1140 H   0  0  0  0  0  0  0  0  0  0  0  0
    4.0420    8.8300   24.1110 H   0  0  0  0  0  0  0  0  0  0  0  0
    3.8900    4.2330   19.6720 H   0  0  0  0  0  0  0  0  0  0  0  0
    3.8870    4.2220   19.6770 H   0  0  0  0  0  0  0  0  0  0  0  0
    2.6670   11.3130   23.8540 H   0  0  0  0  0  0  0  0  0  0  0  0
    2.6670   11.3130   23.8540 H   0  0  0  0  0  0  0  0  0  0  0  0
    3.4690   14.0660   24.8850 H   0  0  0  0  0  0  0  0  0  0  0  0
    3.4690   14.0660   24.8860 H   0  0  0  0  0  0  0  0  0  0  0  0
    2.0640   13.1590   25.3590 H   0  0  0  0  0  0  0  0  0  0  0  0
    2.0630   13.1590   25.3600 H   0  0  0  0  0  0  0  0  0  0  0  0
    2.1850   13.7520   23.7250 H   0  0  0  0  0  0  0  0  0  0  0  0
    2.1850   13.7520   23.7260 H   0  0  0  0  0  0  0  0  0  0  0  0
    2.6060    1.1100   21.7840 H   0  0  0  0  0  0  0  0  0  0  0  0
    1.6490    3.5480   25.1450 H   0  0  0  0  0  0  0  0  0  0  0  0
   -1.2600    2.9680   23.9230 H   0  0  0  0  0  0  0  0  0  0  0  0
    1.3590   -0.6810   23.0040 H   0  0  0  0  0  0  0  0  0  0  0  0
   -0.3550    3.8070   22.7140 H   0  0  0  0  0  0  0  0  0  0  0  0
    2.6210    0.0910   23.9160 H   0  0  0  0  0  0  0  0  0  0  0  0
    0.9960    3.6840   24.7810 H   0  0  0  0  0  0  0  0  0  0  0  0
    2.4210    1.1430   21.7210 H   0  0  0  0  0  0  0  0  0  0  0  0
    0.8180    2.0340   24.9120 H   0  0  0  0  0  0  0  0  0  0  0  0
    0.7500    1.5050   21.9690 H   0  0  0  0  0  0  0  0  0  0  0  0
    7.9590    7.3640   25.4600 H   0  0  0  0  0  0  0  0  0  0  0  0
    7.9590    7.3630   25.4610 H   0  0  0  0  0  0  0  0  0  0  0  0
    6.8340    6.1190   26.0370 H   0  0  0  0  0  0  0  0  0  0  0  0
    6.8330    6.1190   26.0360 H   0  0  0  0  0  0  0  0  0  0  0  0
    6.7830    7.7610   26.7210 H   0  0  0  0  0  0  0  0  0  0  0  0
    6.7830    7.7590   26.7220 H   0  0  0  0  0  0  0  0  0  0  0  0
    0.7360    0.0990   23.9990 H   0  0  0  0  0  0  0  0  0  0  0  0
   -0.7170    2.9370   23.3270 H   0  0  0  0  0  0  0  0  0  0  0  0
    2.4860   -0.0320   23.9840 H   0  0  0  0  0  0  0  0  0  0  0  0
    0.0560    4.4940   23.4930 H   0  0  0  0  0  0  0  0  0  0  0  0
    1.4750   -0.7710   22.7570 H   0  0  0  0  0  0  0  0  0  0  0  0
   -0.7380    3.7670   24.8630 H   0  0  0  0  0  0  0  0  0  0  0  0
    1.8810    6.8420   24.8600 H   0  0  0  0  0  0  0  0  0  0  0  0
    1.8780    6.8490   24.8620 H   0  0  0  0  0  0  0  0  0  0  0  0
    1.6560    8.3750   24.0370 H   0  0  0  0  0  0  0  0  0  0  0  0
    1.6590    8.3770   24.0350 H   0  0  0  0  0  0  0  0  0  0  0  0
    2.2070    8.3360   25.6860 H   0  0  0  0  0  0  0  0  0  0  0  0
    2.2140    8.3370   25.6820 H   0  0  0  0  0  0  0  0  0  0  0  0
    4.7200   13.1820   22.9300 H   0  0  0  0  0  0  0  0  0  0  0  0
    4.7200   13.1840   22.9310 H   0  0  0  0  0  0  0  0  0  0  0  0
  6  3  3  0  0  0  0
  8 77  1  0  0  0  0
 10 63  1  0  0  0  0
 11 79  1  0  0  0  0
 12 80  1  0  0  0  0
 13 84  1  0  0  0  0
 14 81  1  0  0  0  0
 16 89  1  0  0  0  0
 18 94  1  0  0  0  0
 18 92  1  0  0  0  0
 21 56  3  0  0  0  0
 30 51  1  0  0  0  0
 34101  1  0  0  0  0
 34103  1  0  0  0  0
 36113  1  0  0  0  0
 39109  1  0  0  0  0
 39 46  1  0  0  0  0
 40125  1  0  0  0  0
 41 36  1  0  0  0  0
 43120  1  0  0  0  0
 44122  1  0  0  0  0
 46128  1  0  0  0  0
 47130  1  0  0  0  0
 47134  1  0  0  0  0
 49 52  3  0  0  0  0
 55  5  1  0  0  0  0
 58 19  1  0  0  0  0
 61 38  3  0  0  0  0
 68 18  1  0  0  0  0
 71  2  1  0  0  0  0
 73  8  1  0  0  0  0
 76  7  1  0  0  0  0
 86 16  1  0  0  0  0
 91 17  1  0  0  0  0
 93 17  1  0  0  0  0
 95 24  1  0  0  0  0
 98 27  1  0  0  0  0
100 32  1  0  0  0  0
106 33  1  0  0  0  0
110 45  1  0  0  0  0
111 39  1  0  0  0  0
114 35  1  0  0  0  0
115 18  1  0  0  0  0
116 42  1  0  0  0  0
118 43  1  0  0  0  0
123 68  1  0  0  0  0
131 48  1  0  0  0  0
135 54  1  0  0  0  0
M  END
$$$$
