/Users/chinazoemeh/HopeMScP/data/ligands/BRD4-BD1_BRD4-BD1_18_5YOU/BRD4-BD1_BRD4-BD1_18_5YOU.pdb
 OpenBabel07142514423D

 52 55  0  0  1  0  0  0  0  0999 V2000
  -25.4480   -5.7500   73.7440 C   0  0  0  0  0  0  0  0  0  0  0  0
  -24.7180   -6.4770   78.6210 C   0  0  0  0  0  0  0  0  0  0  0  0
  -22.3920   -5.8880   78.2180 C   0  0  0  0  0  0  0  0  0  0  0  0
  -21.4160   -7.9480   74.1050 C   0  0  0  0  0  0  0  0  0  0  0  0
  -19.8370   -6.7670   77.3160 C   0  0  2  0  0  0  0  0  0  0  0  0
  -19.5580   -7.8570   78.3650 C   0  0  0  0  0  0  0  0  0  0  0  0
  -25.7780   -8.3710   77.3410 C   0  0  0  0  0  0  0  0  0  0  0  0
  -27.3560   -9.5190   75.8020 C   0  0  0  0  0  0  0  0  0  0  0  0
  -25.6870   -7.8950   74.8260 C   0  0  0  0  0  0  0  0  0  0  0  0
  -25.0410   -8.5050   73.7570 C   0  0  0  0  0  0  0  0  0  0  0  0
  -24.5910   -7.7310   72.6850 C   0  0  0  0  0  0  0  0  0  0  0  0
  -24.7880   -6.3530   72.6720 C   0  0  0  0  0  0  0  0  0  0  0  0
  -24.2900   -5.4940   71.4870 C   0  0  0  0  0  0  0  0  0  0  0  0
  -25.8920   -6.5170   74.8100 C   0  0  0  0  0  0  0  0  0  0  0  0
  -24.6010   -7.4640   77.6310 C   0  0  0  0  0  0  0  0  0  0  0  0
  -23.6080   -5.6770   78.9150 C   0  0  0  0  0  0  0  0  0  0  0  0
  -22.2900   -6.8660   77.2490 C   0  0  0  0  0  0  0  0  0  0  0  0
  -20.9550   -8.0360   75.5320 C   0  0  0  0  0  0  0  0  0  0  0  0
  -19.9220   -7.9900   74.4100 C   0  0  0  0  0  0  0  0  0  0  0  0
  -19.8900   -5.3960   78.0700 C   0  0  0  0  0  0  0  0  0  0  0  0
  -21.4240   -3.7720   79.1940 C   0  0  0  0  0  0  0  0  0  0  0  0
  -23.3990   -7.6920   76.9500 C   0  0  0  0  0  0  0  0  0  0  0  0
  -26.2290   -8.6150   75.9830 N   0  0  0  0  0  0  0  0  0  0  0  0
  -21.0240   -7.0520   76.5930 N   0  0  0  0  0  0  0  0  0  0  0  0
  -21.2210   -5.0430   78.4930 N   0  0  0  0  0  0  0  0  0  0  0  0
  -26.2650   -8.9310   78.2680 O   0  0  0  0  0  0  0  0  0  0  0  0
  -18.9390   -4.7010   78.2420 O   0  0  0  0  0  0  0  0  0  0  0  0
  -25.5840   -4.8290   73.7470 H   0  0  0  0  0  0  0  0  0  0  0  0
  -25.5230   -6.3510   79.0690 H   0  0  0  0  0  0  0  0  0  0  0  0
  -21.7900   -8.7630   73.7360 H   0  0  0  0  0  0  0  0  0  0  0  0
  -21.7620   -7.0850   73.8300 H   0  0  0  0  0  0  0  0  0  0  0  0
  -19.0970   -6.7410   76.6900 H   0  0  0  0  0  0  0  0  0  0  0  0
  -20.2700   -7.8620   79.0240 H   0  0  0  0  0  0  0  0  0  0  0  0
  -18.7130   -7.6750   78.8040 H   0  0  0  0  0  0  0  0  0  0  0  0
  -19.5160   -8.7220   77.9280 H   0  0  0  0  0  0  0  0  0  0  0  0
  -27.7990   -9.3190   74.9620 H   0  0  0  0  0  0  0  0  0  0  0  0
  -27.9830   -9.4050   76.5330 H   0  0  0  0  0  0  0  0  0  0  0  0
  -27.0370  -10.4350   75.7890 H   0  0  0  0  0  0  0  0  0  0  0  0
  -24.9080   -9.4260   73.7560 H   0  0  0  0  0  0  0  0  0  0  0  0
  -24.1520   -8.1400   71.9740 H   0  0  0  0  0  0  0  0  0  0  0  0
  -23.6460   -6.0010   70.9690 H   0  0  0  0  0  0  0  0  0  0  0  0
  -23.8690   -4.6880   71.8270 H   0  0  0  0  0  0  0  0  0  0  0  0
  -25.0410   -5.2530   70.9240 H   0  0  0  0  0  0  0  0  0  0  0  0
  -26.3360   -6.1100   75.5190 H   0  0  0  0  0  0  0  0  0  0  0  0
  -23.6730   -5.0000   79.5500 H   0  0  0  0  0  0  0  0  0  0  0  0
  -21.0480   -8.9410   75.8690 H   0  0  0  0  0  0  0  0  0  0  0  0
  -19.4490   -7.1500   74.3090 H   0  0  0  0  0  0  0  0  0  0  0  0
  -19.4770   -8.8300   74.2150 H   0  0  0  0  0  0  0  0  0  0  0  0
  -20.5640   -3.3930   79.4320 H   0  0  0  0  0  0  0  0  0  0  0  0
  -21.9430   -3.9260   79.9990 H   0  0  0  0  0  0  0  0  0  0  0  0
  -21.9000   -3.1550   78.6160 H   0  0  0  0  0  0  0  0  0  0  0  0
  -23.3330   -8.3660   76.3130 H   0  0  0  0  0  0  0  0  0  0  0  0
  1 28  1  0  0  0  0
  1 14  1  0  0  0  0
  2 16  1  0  0  0  0
  2 29  1  0  0  0  0
  3 25  1  0  0  0  0
  3 16  2  0  0  0  0
  4 19  1  0  0  0  0
  4 18  1  0  0  0  0
  5 32  1  6  0  0  0
  5 20  1  0  0  0  0
  5  6  1  0  0  0  0
  6 34  1  0  0  0  0
  6 33  1  0  0  0  0
  7 15  1  0  0  0  0
  7 26  2  0  0  0  0
  8 23  1  0  0  0  0
  8 37  1  0  0  0  0
  9 23  1  0  0  0  0
 10  9  1  0  0  0  0
 11 10  2  0  0  0  0
 12 11  1  0  0  0  0
 12  1  2  0  0  0  0
 13 42  1  0  0  0  0
 13 12  1  0  0  0  0
 14  9  2  0  0  0  0
 14 44  1  0  0  0  0
 15  2  2  0  0  0  0
 16 45  1  0  0  0  0
 17  3  1  0  0  0  0
 18 46  1  0  0  0  0
 18 24  1  0  0  0  0
 19 18  1  0  0  0  0
 20 27  2  0  0  0  0
 20 25  1  0  0  0  0
 21 49  1  0  0  0  0
 21 50  1  0  0  0  0
 22 17  2  0  0  0  0
 22 15  1  0  0  0  0
 23  7  1  0  0  0  0
 24 17  1  0  0  0  0
 24  5  1  0  0  0  0
 25 21  1  0  0  0  0
 30  4  1  0  0  0  0
 31  4  1  0  0  0  0
 35  6  1  0  0  0  0
 36  8  1  0  0  0  0
 38  8  1  0  0  0  0
 39 10  1  0  0  0  0
 40 11  1  0  0  0  0
 41 13  1  0  0  0  0
 43 13  1  0  0  0  0
 47 19  1  0  0  0  0
 48 19  1  0  0  0  0
 51 21  1  0  0  0  0
 52 22  1  0  0  0  0
M  END
$$$$
