/Users/chinazoemeh/HopeMScP/data/ligands/BRD4-BD1_BRD4-BD1_58_7MRB/BRD4-BD1_BRD4-BD1_58_7MRB.pdb
 OpenBabel07142514433D

 32 35  0  0  0  0  0  0  0  0999 V2000
   12.0390   -7.7830   -2.2320 C   0  0  0  0  0  0  0  0  0  0  0  0
   13.2880   -7.1800   -2.2140 C   0  0  0  0  0  0  0  0  0  0  0  0
   13.4830   -6.0640   -1.4030 C   0  0  0  0  0  0  0  0  0  0  0  0
   12.4270   -5.5320   -0.6170 C   0  0  0  0  0  0  0  0  0  0  0  0
   11.1620   -6.1560   -0.6350 C   0  0  0  0  0  0  0  0  0  0  0  0
   11.0030   -7.2870   -1.4360 C   0  0  0  0  0  0  0  0  0  0  0  0
   12.6490   -4.3940    0.1880 C   0  0  0  0  0  0  0  0  0  0  0  0
   10.3740   -4.5340    0.9370 C   0  0  0  0  0  0  0  0  0  0  0  0
   10.1070   -5.6400    0.1860 C   0  0  0  0  0  0  0  0  0  0  0  0
    8.7830   -6.2300    0.2620 C   0  0  0  0  0  0  0  0  0  0  0  0
   11.7830   -2.7710    1.8260 C   0  0  0  0  0  0  0  0  0  0  0  0
    8.2710   -6.7260    1.4670 C   0  0  0  0  0  0  0  0  0  0  0  0
    7.0290   -7.3370    1.5490 C   0  0  0  0  0  0  0  0  0  0  0  0
    6.2420   -7.4860    0.3880 C   0  0  0  0  0  0  0  0  0  0  0  0
    6.7630   -7.0160   -0.8300 C   0  0  0  0  0  0  0  0  0  0  0  0
    7.9690   -6.3490   -0.8800 C   0  0  0  0  0  0  0  0  0  0  0  0
    7.7760   -5.2790   -3.0460 C   0  0  0  0  0  0  0  0  0  0  0  0
    6.6040   -4.6230   -2.7810 C   0  0  0  0  0  0  0  0  0  0  0  0
    5.9090   -3.9680   -3.8080 C   0  0  0  0  0  0  0  0  0  0  0  0
    6.4120   -3.9640   -5.1370 C   0  0  0  0  0  0  0  0  0  0  0  0
    7.6450   -4.6100   -5.3710 C   0  0  0  0  0  0  0  0  0  0  0  0
    8.3360   -5.2790   -4.3340 C   0  0  0  0  0  0  0  0  0  0  0  0
    7.2270   -6.0970    4.7300 C   0  0  0  0  0  0  0  0  0  0  0  0
    5.8000   -5.5660    4.8010 C   0  0  0  0  0  0  0  0  0  0  0  0
   11.6040   -3.9310    0.9720 N   0  0  0  0  0  0  0  0  0  0  0  0
    6.4730   -7.8490    2.7300 N   0  0  0  0  0  0  0  0  0  0  0  0
   13.7520   -3.7650    0.2190 O   0  0  0  0  0  0  0  0  0  0  0  0
    8.5230   -5.8910   -2.1100 O   0  0  0  0  0  0  0  0  0  0  0  0
    8.6400   -8.2180    4.0310 O   0  0  0  0  0  0  0  0  0  0  0  0
    6.4010   -8.5810    5.1250 O   0  0  0  0  0  0  0  0  0  0  0  0
    7.2330   -7.7920    4.1880 S   0  0  0  0  0  0  0  0  0  0  0  0
    5.5590   -3.2140   -6.3940 Cl  0  0  0  0  0  0  0  0  0  0  0  0
  1  2  2  0  0  0  0
  1  6  1  0  0  0  0
  2  3  1  0  0  0  0
  3  4  2  0  0  0  0
  4  7  1  0  0  0  0
  5  4  1  0  0  0  0
  5  9  1  0  0  0  0
  6  5  2  0  0  0  0
  7 27  2  0  0  0  0
  7 25  1  0  0  0  0
  8 25  1  0  0  0  0
  9 10  1  0  0  0  0
  9  8  2  0  0  0  0
 10 12  1  0  0  0  0
 12 13  2  0  0  0  0
 13 26  1  0  0  0  0
 14 13  1  0  0  0  0
 15 14  2  0  0  0  0
 16 15  1  0  0  0  0
 16 10  2  0  0  0  0
 17 18  1  0  0  0  0
 17 28  1  0  0  0  0
 19 18  2  0  0  0  0
 20 19  1  0  0  0  0
 21 20  2  0  0  0  0
 21 22  1  0  0  0  0
 22 17  2  0  0  0  0
 23 24  1  0  0  0  0
 25 11  1  0  0  0  0
 26 31  1  0  0  0  0
 28 16  1  0  0  0  0
 29 31  2  0  0  0  0
 31 23  1  0  0  0  0
 31 30  2  0  0  0  0
 32 20  1  0  0  0  0
M  END
$$$$
