/Users/chinazoemeh/HopeMScP/data/ligands/BRD4-BD1_BRD4-BD1_53_6VUF/BRD4-BD1_BRD4-BD1_53_6VUF.pdb
 OpenBabel07142514423D

 39 41  0  0  1  0  0  0  0  0999 V2000
   12.6320   -1.6500   26.9860 C   0  0  0  0  0  0  0  0  0  0  0  0
   11.2840   -0.1280   28.8380 C   0  0  0  0  0  0  0  0  0  0  0  0
   11.6020    0.4430   30.2180 C   0  0  0  0  0  0  0  0  0  0  0  0
   12.9150   -0.2060   30.5880 C   0  0  2  0  0  0  0  0  0  0  0  0
   13.8650    0.8210   31.1870 C   0  0  0  0  0  0  0  0  0  0  0  0
   13.4020    1.9340   31.9670 C   0  0  0  0  0  0  0  0  0  0  0  0
   14.3370    2.8430   32.4880 C   0  0  0  0  0  0  0  0  0  0  0  0
   15.7270    2.6850   32.2500 C   0  0  0  0  0  0  0  0  0  0  0  0
   17.0450    5.2430   30.5340 C   0  0  0  0  0  0  0  0  0  0  0  0
   16.0590    5.9070   29.5560 C   0  0  0  0  0  0  0  0  0  0  0  0
   16.7780    6.3910   28.2900 C   0  0  0  0  0  0  0  0  0  0  0  0
   16.1320    1.5820   31.4720 C   0  0  0  0  0  0  0  0  0  0  0  0
   15.2230    0.6450   30.9370 C   0  0  0  0  0  0  0  0  0  0  0  0
   13.4570   -0.8290   29.2460 C   0  0  0  0  0  0  0  0  0  0  0  0
   12.3550   -0.8790   28.2640 N   0  0  0  0  0  0  0  0  0  0  0  0
   16.7120    5.2730   31.9830 N   0  0  0  0  0  0  0  0  0  0  0  0
   18.2030    3.2800   32.7640 O   0  0  0  0  0  0  0  0  0  0  0  0
   16.6320    4.1370   34.3240 O   0  0  0  0  0  0  0  0  0  0  0  0
   10.1710    0.0610   28.3200 O   0  0  0  0  0  0  0  0  0  0  0  0
   16.9170    3.8650   32.9350 S   0  0  0  0  0  0  0  0  0  0  0  0
   -3.2920    2.9630   -3.1150 C   0  0  0  0  0  0  0  0  0  0  0  0
   -4.6320    1.5670   -5.0420 C   0  0  0  0  0  0  0  0  0  0  0  0
   -4.3250    1.1590   -6.4880 C   0  0  0  0  0  0  0  0  0  0  0  0
   -3.0380    1.8940   -6.7910 C   0  0  2  0  0  0  0  0  0  0  0  0
   -1.9460    0.9620   -7.1650 C   0  0  0  0  0  0  0  0  0  0  0  0
   -0.6080    1.1960   -6.6840 C   0  0  0  0  0  0  0  0  0  0  0  0
    0.3970    0.2790   -7.0300 C   0  0  0  0  0  0  0  0  0  0  0  0
    0.0830   -0.8800   -7.8190 C   0  0  0  0  0  0  0  0  0  0  0  0
    0.4880   -3.4530   -5.8740 C   0  0  0  0  0  0  0  0  0  0  0  0
    0.1370   -4.9550   -5.5380 C   0  0  0  0  0  0  0  0  0  0  0  0
   -1.2420   -1.0400   -8.2330 C   0  0  0  0  0  0  0  0  0  0  0  0
   -2.2690   -0.1540   -7.9130 C   0  0  0  0  0  0  0  0  0  0  0  0
   -2.5460    2.4300   -5.4320 C   0  0  0  0  0  0  0  0  0  0  0  0
   -3.5920    2.3070   -4.4240 N   0  0  0  0  0  0  0  0  0  0  0  0
    1.5670   -3.2070   -6.9400 N   0  0  0  0  0  0  0  0  0  0  0  0
    2.4820   -1.2770   -8.5300 O   0  0  0  0  0  0  0  0  0  0  0  0
    0.9880   -2.9310   -9.4520 O   0  0  0  0  0  0  0  0  0  0  0  0
   -5.7100    1.2800   -4.5000 O   0  0  0  0  0  0  0  0  0  0  0  0
    1.3540   -2.1270   -8.3080 S   0  0  0  0  0  0  0  0  0  0  0  0
  1 15  1  0  0  0  0
  2  3  1  0  0  0  0
  3  4  1  0  0  0  0
  4  5  1  6  0  0  0
  5  6  1  0  0  0  0
  6  7  2  0  0  0  0
  8  7  1  0  0  0  0
  8 20  1  0  0  0  0
  9 16  1  0  0  0  0
 10  9  1  0  0  0  0
 11 10  1  0  0  0  0
 12  8  2  0  0  0  0
 13  5  2  0  0  0  0
 13 12  1  0  0  0  0
 14  4  1  0  0  0  0
 15  2  1  0  0  0  0
 15 14  1  0  0  0  0
 16 20  1  0  0  0  0
 17 20  2  0  0  0  0
 19  2  2  0  0  0  0
 20 18  2  0  0  0  0
 22 38  2  0  0  0  0
 22 34  1  0  0  0  0
 23 22  1  0  0  0  0
 24 25  1  1  0  0  0
 24 23  1  0  0  0  0
 24 33  1  0  0  0  0
 25 26  1  0  0  0  0
 27 26  2  0  0  0  0
 28 27  1  0  0  0  0
 29 30  1  0  0  0  0
 31 32  1  0  0  0  0
 31 28  2  0  0  0  0
 32 25  2  0  0  0  0
 33 34  1  0  0  0  0
 34 21  1  0  0  0  0
 35 29  1  0  0  0  0
 36 39  2  0  0  0  0
 37 39  2  0  0  0  0
 39 28  1  0  0  0  0
 39 35  1  0  0  0  0
M  END
$$$$
