/Users/chinazoemeh/HopeMScP/data/ligands/BRD4-BD1_BRD4-BD1_9_7REL/BRD4-BD1_BRD4-BD1_9_7REL.pdb
 OpenBabel07142514423D

  4  3  0  0  0  0  0  0  0  0999 V2000
   24.0230   -2.0190    6.5010 C   0  0  0  0  0  0  0  0  0  0  0  0
   23.0170   -2.5020    7.4040 O   0  0  0  0  0  0  0  0  0  0  0  0
   25.4080   -2.5470    6.8410 C   0  0  0  0  0  0  0  0  0  0  0  0
   25.3680   -3.9450    7.1480 O   0  0  0  0  0  0  0  0  0  0  0  0
  1  3  1  0  0  0  0
  1  2  1  0  0  0  0
  3  4  1  0  0  0  0
M  END
$$$$
