/Users/chinazoemeh/HopeMScP/data/ligands/BRD4-BD1_BRD4-BD1_100_7YQ9/BRD4-BD1_BRD4-BD1_100_7YQ9.pdb
 OpenBabel07142514423D

 50 56  0  0  0  0  0  0  0  0999 V2000
  -42.0840   -7.1030   -0.8040 C   0  0  0  0  0  0  0  0  0  0  0  0
  -42.8500   -5.6200    0.6210 C   0  0  0  0  0  0  0  0  0  0  0  0
  -44.8660   -7.3560    1.7940 C   0  0  0  0  0  0  0  0  0  0  0  0
  -44.7550   -5.9980    2.2990 C   0  0  0  0  0  0  0  0  0  0  0  0
  -43.7660   -5.1010    1.7460 C   0  0  0  0  0  0  0  0  0  0  0  0
  -45.7560   -9.6350    1.8050 C   0  0  0  0  0  0  0  0  0  0  0  0
  -45.8170  -10.5970    2.9810 C   0  0  0  0  0  0  0  0  0  0  0  0
  -44.9400  -10.1300    4.1500 C   0  0  0  0  0  0  0  0  0  0  0  0
  -43.5760  -10.2280    4.2670 C   0  0  0  0  0  0  0  0  0  0  0  0
  -43.2200   -9.6990    5.5090 C   0  0  0  0  0  0  0  0  0  0  0  0
  -45.4260   -9.5550    5.3150 C   0  0  0  0  0  0  0  0  0  0  0  0
  -42.4660  -10.7840    3.3070 C   0  0  0  0  0  0  0  0  0  0  0  0
  -41.0260  -10.7410    3.7400 C   0  0  0  0  0  0  0  0  0  0  0  0
  -40.6590  -10.1810    5.0630 C   0  0  0  0  0  0  0  0  0  0  0  0
  -41.7210   -9.6420    5.9750 C   0  0  0  0  0  0  0  0  0  0  0  0
  -41.9190   -8.4310   -1.5360 C   0  0  0  0  0  0  0  0  0  0  0  0
  -43.0260   -8.7330   -2.2750 F   0  0  0  0  0  0  0  0  0  0  0  0
  -40.8110   -8.3330   -2.3060 F   0  0  0  0  0  0  0  0  0  0  0  0
  -41.7730   -9.4100   -0.6000 F   0  0  0  0  0  0  0  0  0  0  0  0
  -42.9760   -6.9010    0.1710 N   0  0  0  0  0  0  0  0  0  0  0  0
  -41.8700   -5.0410   -0.0720 N   0  0  0  0  0  0  0  0  0  0  0  0
  -41.3740   -5.9730   -0.9620 N   0  0  0  0  0  0  0  0  0  0  0  0
  -44.0010   -7.8380    0.7440 N   0  0  0  0  0  0  0  0  0  0  0  0
  -45.8330   -8.2800    2.3160 N   0  0  0  0  0  0  0  0  0  0  0  0
  -44.3680   -9.2870    6.1410 N   0  0  0  0  0  0  0  0  0  0  0  0
  -18.3480    2.5110  -38.9140 C   0  0  0  0  0  0  0  0  0  0  0  0
  -19.1020    1.0330  -40.3530 C   0  0  0  0  0  0  0  0  0  0  0  0
  -21.1150    2.7730  -41.5380 C   0  0  0  0  0  0  0  0  0  0  0  0
  -21.0000    1.4130  -42.0460 C   0  0  0  0  0  0  0  0  0  0  0  0
  -20.0120    0.5190  -41.4880 C   0  0  0  0  0  0  0  0  0  0  0  0
  -22.0010    5.0470  -41.5480 C   0  0  0  0  0  0  0  0  0  0  0  0
  -22.0540    6.0130  -42.7200 C   0  0  0  0  0  0  0  0  0  0  0  0
  -21.2000    5.5300  -43.8980 C   0  0  0  0  0  0  0  0  0  0  0  0
  -19.8380    5.6260  -44.0290 C   0  0  0  0  0  0  0  0  0  0  0  0
  -19.4970    5.0840  -45.2690 C   0  0  0  0  0  0  0  0  0  0  0  0
  -21.6990    4.9390  -45.0510 C   0  0  0  0  0  0  0  0  0  0  0  0
  -18.7180    6.2000  -43.0880 C   0  0  0  0  0  0  0  0  0  0  0  0
  -17.2820    6.1520  -43.5360 C   0  0  0  0  0  0  0  0  0  0  0  0
  -16.9300    5.5760  -44.8570 C   0  0  0  0  0  0  0  0  0  0  0  0
  -18.0040    5.0280  -45.7520 C   0  0  0  0  0  0  0  0  0  0  0  0
  -18.1870    3.8370  -38.1790 C   0  0  0  0  0  0  0  0  0  0  0  0
  -19.2870    4.1390  -37.4340 F   0  0  0  0  0  0  0  0  0  0  0  0
  -18.0450    4.8180  -39.1180 F   0  0  0  0  0  0  0  0  0  0  0  0
  -17.0830    3.7340  -37.4000 F   0  0  0  0  0  0  0  0  0  0  0  0
  -19.2360    2.3130  -39.8990 N   0  0  0  0  0  0  0  0  0  0  0  0
  -18.1230    0.4560  -39.6550 N   0  0  0  0  0  0  0  0  0  0  0  0
  -17.6310    1.3860  -38.7640 N   0  0  0  0  0  0  0  0  0  0  0  0
  -20.2560    3.2560  -40.4770 N   0  0  0  0  0  0  0  0  0  0  0  0
  -22.0850    3.6940  -42.0630 N   0  0  0  0  0  0  0  0  0  0  0  0
  -20.6470    4.6630  -45.8850 N   0  0  0  0  0  0  0  0  0  0  0  0
  1 20  1  0  0  0  0
  2  5  1  0  0  0  0
  3  4  1  0  0  0  0
  3 24  1  0  0  0  0
  5  4  2  0  0  0  0
  6 24  1  0  0  0  0
  6  7  1  0  0  0  0
  7  8  1  0  0  0  0
  8  9  2  0  0  0  0
  8 11  1  0  0  0  0
  9 10  1  0  0  0  0
 10 15  1  0  0  0  0
 10 25  2  0  0  0  0
 11 25  1  0  0  0  0
 12 13  2  0  0  0  0
 12  9  1  0  0  0  0
 13 14  1  0  0  0  0
 14 15  2  0  0  0  0
 16  1  1  0  0  0  0
 16 19  1  0  0  0  0
 17 16  1  0  0  0  0
 18 16  1  0  0  0  0
 20  2  1  0  0  0  0
 20 23  1  0  0  0  0
 21  2  2  0  0  0  0
 22  1  2  0  0  0  0
 22 21  1  0  0  0  0
 23  3  2  0  0  0  0
 26 47  2  0  0  0  0
 26 41  1  0  0  0  0
 27 45  1  0  0  0  0
 27 46  2  0  0  0  0
 28 48  2  0  0  0  0
 29 28  1  0  0  0  0
 29 30  2  0  0  0  0
 30 27  1  0  0  0  0
 32 31  1  0  0  0  0
 33 32  1  0  0  0  0
 34 33  1  0  0  0  0
 34 37  2  0  0  0  0
 35 34  1  0  0  0  0
 36 33  2  0  0  0  0
 38 37  1  0  0  0  0
 39 38  2  0  0  0  0
 40 35  1  0  0  0  0
 40 39  1  0  0  0  0
 41 42  1  0  0  0  0
 41 44  1  0  0  0  0
 43 41  1  0  0  0  0
 45 26  1  0  0  0  0
 46 47  1  0  0  0  0
 48 45  1  0  0  0  0
 49 31  1  0  0  0  0
 49 28  1  0  0  0  0
 50 35  2  0  0  0  0
 50 36  1  0  0  0  0
M  END
$$$$
