/Users/chinazoemeh/HopeMScP/data/ligands/BRD4-BD1_BRD4-BD1_10_7REM/BRD4-BD1_BRD4-BD1_10_7REM.pdb
 OpenBabel07142514423D

 41 44  0  0  0  0  0  0  0  0999 V2000
   13.4230   -6.0860   -0.8740 N   0  0  0  0  0  4  0  0  0  0  0  0
   14.6980   -5.8950   -1.1830 C   0  0  0  0  0  0  0  0  0  0  0  0
   14.8110   -7.7430   -3.0260 C   0  0  0  0  0  0  0  0  0  0  0  0
   15.0720   -9.0580   -5.0300 C   0  0  0  0  0  0  0  0  0  0  0  0
   13.0430  -10.2130   -6.9280 C   0  0  0  0  0  0  0  0  0  0  0  0
   13.6260  -10.9860   -8.1120 C   0  0  0  0  0  0  0  0  0  0  0  0
   14.1630  -12.8960   -6.7780 C   0  0  0  0  0  0  0  0  0  0  0  0
   13.1860   -9.3970   -3.5840 C   0  0  0  0  0  0  0  0  0  0  0  0
   13.6330   -8.4020   -2.7220 C   0  0  0  0  0  0  0  0  0  0  0  0
    8.7480   -4.6200   -4.2640 C   0  0  0  0  0  0  0  0  0  0  0  0
    9.1540   -5.4720   -5.4600 C   0  0  0  0  0  0  0  0  0  0  0  0
    7.9570   -6.2660   -5.9830 C   0  0  0  0  0  0  0  0  0  0  0  0
    9.7250   -4.5970   -6.5750 C   0  0  0  0  0  0  0  0  0  0  0  0
    9.7130   -7.3190   -2.3270 C   0  0  0  0  0  0  0  0  0  0  0  0
   10.6770   -6.5510   -1.6840 C   0  0  0  0  0  0  0  0  0  0  0  0
   10.5010   -6.2680   -0.3340 C   0  0  0  0  0  0  0  0  0  0  0  0
   12.8560   -5.2800    0.0210 C   0  0  0  0  0  0  0  0  0  0  0  0
   15.5320   -8.0720   -4.1690 C   0  0  0  0  0  0  0  0  0  0  0  0
   13.8950   -9.7170   -4.7230 C   0  0  0  0  0  0  0  0  0  0  0  0
   13.3410  -10.8080   -5.6520 C   0  0  0  0  0  0  0  0  0  0  0  0
   13.8940  -12.9660   -8.9230 C   0  0  0  0  0  0  0  0  0  0  0  0
   14.3310  -11.8600   -5.6600 C   0  0  0  0  0  0  0  0  0  0  0  0
   14.9230   -4.1120    0.2490 C   0  0  0  0  0  0  0  0  0  0  0  0
   13.5970   -4.2650    0.6360 C   0  0  0  0  0  0  0  0  0  0  0  0
   12.9660   -3.2990    1.6590 C   0  0  0  0  0  0  0  0  0  0  0  0
    9.3900   -6.7200    0.3550 C   0  0  0  0  0  0  0  0  0  0  0  0
    8.4250   -7.4860   -0.2970 C   0  0  0  0  0  0  0  0  0  0  0  0
    8.6070   -7.7810   -1.6370 C   0  0  0  0  0  0  0  0  0  0  0  0
   12.0330  -10.0660   -3.3270 F   0  0  0  0  0  0  0  0  0  0  0  0
   11.8910   -2.6800    1.1140 F   0  0  0  0  0  0  0  0  0  0  0  0
   13.8460   -2.3240    2.0240 F   0  0  0  0  0  0  0  0  0  0  0  0
   12.5070   -3.9430    2.7500 F   0  0  0  0  0  0  0  0  0  0  0  0
    9.8340   -7.6950   -3.7280 N   0  0  0  0  0  0  0  0  0  0  0  0
   11.4610   -5.4560    0.4100 N   0  0  0  0  0  0  0  0  0  0  0  0
   15.3780   -6.7220   -2.1660 N   0  0  0  0  0  0  0  0  0  0  0  0
   13.4740  -12.3990   -7.9350 N   0  0  0  0  0  0  0  0  0  0  0  0
   15.4360   -4.9430   -0.6440 N   0  0  0  0  0  0  0  0  0  0  0  0
   11.6730   -5.9500   -4.5490 O   0  0  0  0  0  0  0  0  0  0  0  0
   10.8260   -7.4530   -6.1160 O   0  0  0  0  0  0  0  0  0  0  0  0
   10.4440   -6.6520   -4.9460 S   0  0  0  0  0  0  0  0  0  0  0  0
    7.4140   -8.7530   -2.5400 Cl  0  0  0  0  0  0  0  0  0  0  0  0
  1 17  2  0  0  0  0
  2  1  2  0  0  0  0
  2 37  2  0  0  0  0
  3  9  1  0  0  0  0
  3 35  1  0  0  0  0
  4 19  2  0  0  0  0
  4 18  1  0  0  0  0
  5 20  1  0  0  0  0
  6 36  1  0  0  0  0
  6  5  1  0  0  0  0
  7 22  1  0  0  0  0
  8 29  1  0  0  0  0
  8  9  2  0  0  0  0
 11 40  1  0  0  0  0
 11 10  1  0  0  0  0
 12 11  1  0  0  0  0
 13 11  1  0  0  0  0
 14 15  2  0  0  0  0
 14 28  1  0  0  0  0
 15 16  1  0  0  0  0
 16 26  2  0  0  0  0
 16 34  1  0  0  0  0
 17 34  1  0  0  0  0
 17 24  1  0  0  0  0
 18  3  2  0  0  0  0
 19  8  1  0  0  0  0
 20 19  1  0  0  0  0
 21 36  1  0  0  0  0
 22 20  1  0  0  0  0
 23 24  2  0  0  0  0
 24 25  1  0  0  0  0
 25 31  1  0  0  0  0
 25 32  1  0  0  0  0
 27 26  1  0  0  0  0
 28 27  2  0  0  0  0
 30 25  1  0  0  0  0
 33 14  1  0  0  0  0
 35  2  1  0  0  0  0
 36  7  1  0  0  0  0
 37 23  1  0  0  0  0
 39 40  2  0  0  0  0
 40 38  2  0  0  0  0
 40 33  1  0  0  0  0
 41 28  1  0  0  0  0
M  END
$$$$
