/Users/chinazoemeh/HopeMScP/data/ligands/BRD4-BD1_BRD4-BD1_48_7K6G/BRD4-BD1_BRD4-BD1_48_7K6G.pdb
 OpenBabel07142514433D

188212  0  0  1  0  0  0  0  0999 V2000
   -5.2330  -17.5150  -22.3060 C   0  0  2  0  0  0  0  0  0  0  0  0
   -5.6040  -19.3890  -20.5760 C   0  0  0  0  0  0  0  0  0  0  0  0
   -5.1480  -19.2300  -16.7650 C   0  0  0  0  0  0  0  0  0  0  0  0
   -5.0420  -15.9870  -22.4730 C   0  0  0  0  0  0  0  0  0  0  0  0
   -4.7330  -15.7720  -23.9690 C   0  0  0  0  0  0  0  0  0  0  0  0
   -6.4230  -13.2280  -25.1190 C   0  0  0  0  0  0  0  0  0  0  0  0
   -5.0440   -9.2250  -27.3890 C   0  0  0  0  0  0  0  0  0  0  0  0
   -4.9590   -7.0260  -28.2090 C   0  0  0  0  0  0  0  0  0  0  0  0
   -7.9690  -10.3020  -22.4440 C   0  0  0  0  0  0  0  0  0  0  0  0
   -7.4980  -11.4640  -23.3360 C   0  0  0  0  0  0  0  0  0  0  0  0
   -6.1510  -11.8600  -25.2590 C   0  0  0  0  0  0  0  0  0  0  0  0
   -5.3780  -11.4150  -26.3510 C   0  0  0  0  0  0  0  0  0  0  0  0
   -4.8730  -12.3350  -27.2880 C   0  0  0  0  0  0  0  0  0  0  0  0
   -5.1390  -13.7030  -27.1390 C   0  0  0  0  0  0  0  0  0  0  0  0
   -5.9340  -14.1620  -26.0610 C   0  0  0  0  0  0  0  0  0  0  0  0
   -6.1560  -15.5720  -25.9420 C   0  0  0  0  0  0  0  0  0  0  0  0
   -6.5370  -17.4920  -24.5070 C   0  0  0  0  0  0  0  0  0  0  0  0
   -6.5370  -17.9500  -23.0230 C   0  0  0  0  0  0  0  0  0  0  0  0
   -6.0020  -19.5000  -19.0820 C   0  0  0  0  0  0  0  0  0  0  0  0
   -4.3820  -17.6660  -18.5260 C   0  0  0  0  0  0  0  0  0  0  0  0
   -4.0380  -17.5010  -20.0230 C   0  0  0  0  0  0  0  0  0  0  0  0
   -4.7720   -7.4980  -29.5220 C   0  0  0  0  0  0  0  0  0  0  0  0
   -3.8090   -6.6670  -31.5700 C   0  0  0  0  0  0  0  0  0  0  0  0
   -2.9270   -7.7590  -31.7900 C   0  0  0  0  0  0  0  0  0  0  0  0
   -3.2840   -9.1180  -31.5080 C   0  0  0  0  0  0  0  0  0  0  0  0
   -4.7250   -8.8940  -29.7330 C   0  0  1  0  0  0  0  0  0  0  0  0
   -5.1510  -10.7640  -31.2170 C   0  0  0  0  0  0  0  0  0  0  0  0
   -5.1910  -11.1830  -32.7180 C   0  0  0  0  0  0  0  0  0  0  0  0
   -6.6040  -11.6990  -33.0440 C   0  0  0  0  0  0  0  0  0  0  0  0
   -7.3070  -11.8930  -31.6910 C   0  0  0  0  0  0  0  0  0  0  0  0
   -6.6320  -10.8820  -30.7570 C   0  0  0  0  0  0  0  0  0  0  0  0
   -2.3160  -10.1200  -31.7690 C   0  0  0  0  0  0  0  0  0  0  0  0
   -1.0540   -9.8000  -32.2920 C   0  0  0  0  0  0  0  0  0  0  0  0
   -0.7120   -8.4670  -32.5530 C   0  0  0  0  0  0  0  0  0  0  0  0
   -1.6420   -7.4570  -32.3110 C   0  0  0  0  0  0  0  0  0  0  0  0
   -5.6370   -5.4570  -30.5040 C   0  0  0  0  0  0  0  0  0  0  0  0
   -5.6840  -16.3610  -24.8990 N   0  0  0  0  0  0  0  0  0  0  0  0
   -5.1500  -18.0000  -20.8920 N   0  0  0  0  0  0  0  0  0  0  0  0
   -4.8670  -19.0500  -18.2110 N   0  0  0  0  0  0  0  0  0  0  0  0
   -5.1940  -10.0760  -26.3620 N   0  0  0  0  0  0  0  0  0  0  0  0
   -5.0970   -7.8970  -27.2000 N   0  0  0  0  0  0  0  0  0  0  0  0
   -4.6780   -6.5570  -30.5180 N   0  0  0  0  0  0  0  0  0  0  0  0
   -4.5270   -9.4650  -30.9710 N   0  0  0  0  0  0  0  0  0  0  0  0
   -4.8640   -9.7250  -28.6420 N   0  0  0  0  0  0  0  0  0  0  0  0
   -6.6270  -10.9360  -24.3670 O   0  0  0  0  0  0  0  0  0  0  0  0
   -6.8200  -16.1170  -26.8640 O   0  0  0  0  0  0  0  0  0  0  0  0
   -3.7820   -5.7380  -32.4090 O   0  0  0  0  0  0  0  0  0  0  0  0
    4.1750  -16.7420  -39.1980 C   0  0  1  0  0  0  0  0  0  0  0  0
    3.6040  -16.3840  -41.6920 C   0  0  0  0  0  0  0  0  0  0  0  0
    4.7910  -18.4260  -44.7380 C   0  0  0  0  0  0  0  0  0  0  0  0
    5.2900  -17.2450  -38.2370 C   0  0  0  0  0  0  0  0  0  0  0  0
    4.9510  -16.9920  -36.7450 C   0  0  0  0  0  0  0  0  0  0  0  0
    5.0400  -12.5050  -36.1220 C   0  0  0  0  0  0  0  0  0  0  0  0
    3.4400   -8.6260  -33.7390 C   0  0  0  0  0  0  0  0  0  0  0  0
    3.1160   -6.4850  -32.8590 C   0  0  0  0  0  0  0  0  0  0  0  0
    6.4800   -9.3570  -38.6110 C   0  0  0  0  0  0  0  0  0  0  0  0
    6.1270  -10.6020  -37.7750 C   0  0  0  0  0  0  0  0  0  0  0  0
    4.7140  -11.1610  -35.9180 C   0  0  0  0  0  0  0  0  0  0  0  0
    3.9230  -10.7840  -34.8110 C   0  0  0  0  0  0  0  0  0  0  0  0
    3.4640  -11.7720  -33.9220 C   0  0  0  0  0  0  0  0  0  0  0  0
    3.7980  -13.1120  -34.1340 C   0  0  0  0  0  0  0  0  0  0  0  0
    4.6000  -13.5010  -35.2300 C   0  0  0  0  0  0  0  0  0  0  0  0
    4.8790  -14.8970  -35.4140 C   0  0  0  0  0  0  0  0  0  0  0  0
    3.4690  -15.0900  -37.4190 C   0  0  0  0  0  0  0  0  0  0  0  0
    3.8710  -15.2500  -38.9050 C   0  0  0  0  0  0  0  0  0  0  0  0
    3.4730  -17.2250  -42.9830 C   0  0  0  0  0  0  0  0  0  0  0  0
    5.1920  -18.8220  -42.3260 C   0  0  0  0  0  0  0  0  0  0  0  0
    5.4180  -18.1090  -40.9730 C   0  0  0  0  0  0  0  0  0  0  0  0
    2.9760   -7.0120  -31.5650 C   0  0  0  0  0  0  0  0  0  0  0  0
    1.9260   -6.3620  -29.4890 C   0  0  0  0  0  0  0  0  0  0  0  0
    1.1750   -7.5560  -29.3160 C   0  0  0  0  0  0  0  0  0  0  0  0
    1.6780   -8.8450  -29.6480 C   0  0  0  0  0  0  0  0  0  0  0  0
    3.0850   -8.4190  -31.3980 C   0  0  1  0  0  0  0  0  0  0  0  0
    3.6450  -10.3000  -29.9480 C   0  0  0  0  0  0  0  0  0  0  0  0
    3.7960  -10.6460  -28.4370 C   0  0  0  0  0  0  0  0  0  0  0  0
    5.3000  -10.7430  -28.1170 C   0  0  0  0  0  0  0  0  0  0  0  0
    5.9610  -11.0980  -29.4550 C   0  0  0  0  0  0  0  0  0  0  0  0
    5.0870  -10.4090  -30.5190 C   0  0  0  0  0  0  0  0  0  0  0  0
    0.8310   -9.9640  -29.4270 C   0  0  0  0  0  0  0  0  0  0  0  0
   -0.4570   -9.8330  -28.8910 C   0  0  0  0  0  0  0  0  0  0  0  0
   -0.9490   -8.5670  -28.5720 C   0  0  0  0  0  0  0  0  0  0  0  0
   -0.1400   -7.4470  -28.7950 C   0  0  0  0  0  0  0  0  0  0  0  0
    3.6420   -4.9440  -30.4930 C   0  0  0  0  0  0  0  0  0  0  0  0
    4.3620  -15.7040  -36.4330 N   0  0  0  0  0  0  0  0  0  0  0  0
    4.5250  -16.9410  -40.6400 N   0  0  0  0  0  0  0  0  0  0  0  0
    4.7690  -17.8510  -43.3650 N   0  0  0  0  0  0  0  0  0  0  0  0
    3.6760   -9.4510  -34.7660 N   0  0  0  0  0  0  0  0  0  0  0  0
    3.3300   -7.2970  -33.9000 N   0  0  0  0  0  0  0  0  0  0  0  0
    2.7870   -6.1230  -30.5330 N   0  0  0  0  0  0  0  0  0  0  0  0
    2.9450   -9.0310  -30.1820 N   0  0  0  0  0  0  0  0  0  0  0  0
    3.3030   -9.1720  -32.5090 N   0  0  0  0  0  0  0  0  0  0  0  0
    5.1530  -10.1870  -36.7890 O   0  0  0  0  0  0  0  0  0  0  0  0
    5.6320  -15.4330  -34.5600 O   0  0  0  0  0  0  0  0  0  0  0  0
    1.7840   -5.4560  -28.6310 O   0  0  0  0  0  0  0  0  0  0  0  0
   -9.9560   -9.0420  -27.3120 C   0  0  1  0  0  0  0  0  0  0  0  0
   -8.7500  -11.2680  -27.5230 C   0  0  0  0  0  0  0  0  0  0  0  0
   -9.9990  -14.8340  -28.0320 C   0  0  0  0  0  0  0  0  0  0  0  0
   -9.5020   -8.8030  -25.8440 C   0  0  0  0  0  0  0  0  0  0  0  0
   -9.5710   -7.2950  -25.5320 C   0  0  0  0  0  0  0  0  0  0  0  0
   -7.0280   -4.4510  -23.9420 C   0  0  0  0  0  0  0  0  0  0  0  0
   -4.3080   -6.5520  -20.5170 C   0  0  0  0  0  0  0  0  0  0  0  0
   -2.8910   -7.1640  -18.7580 C   0  0  0  0  0  0  0  0  0  0  0  0
   -5.8890   -1.1550  -21.3720 C   0  0  0  0  0  0  0  0  0  0  0  0
   -6.1650   -2.1950  -22.4710 C   0  0  0  0  0  0  0  0  0  0  0  0
   -6.3300   -4.5650  -22.7280 C   0  0  0  0  0  0  0  0  0  0  0  0
   -5.7720   -5.7900  -22.3450 C   0  0  0  0  0  0  0  0  0  0  0  0
   -5.9120   -6.9290  -23.1690 C   0  0  0  0  0  0  0  0  0  0  0  0
   -6.5900   -6.8130  -24.3780 C   0  0  0  0  0  0  0  0  0  0  0  0
   -7.1680   -5.5780  -24.7830 C   0  0  0  0  0  0  0  0  0  0  0  0
   -7.8460   -5.5890  -26.0440 C   0  0  0  0  0  0  0  0  0  0  0  0
   -8.9030   -6.7900  -27.9050 C   0  0  0  0  0  0  0  0  0  0  0  0
   -9.0320   -8.2820  -28.2880 C   0  0  0  0  0  0  0  0  0  0  0  0
   -8.8470  -12.6410  -28.2250 C   0  0  0  0  0  0  0  0  0  0  0  0
  -11.2740  -12.6960  -27.7610 C   0  0  0  0  0  0  0  0  0  0  0  0
  -11.2170  -11.2620  -27.1810 C   0  0  0  0  0  0  0  0  0  0  0  0
   -2.6290   -8.4140  -19.3570 C   0  0  0  0  0  0  0  0  0  0  0  0
   -2.0680  -10.6320  -18.6110 C   0  0  0  0  0  0  0  0  0  0  0  0
   -3.1040  -11.3390  -19.3060 C   0  0  0  0  0  0  0  0  0  0  0  0
   -3.5840  -10.9590  -20.6000 C   0  0  0  0  0  0  0  0  0  0  0  0
   -3.2610   -8.6890  -20.5900 C   0  0  0  0  0  0  0  0  0  0  0  0
   -3.0970   -9.7660  -22.7630 C   0  0  0  0  0  0  0  0  0  0  0  0
   -2.5200  -11.0020  -23.5230 C   0  0  0  0  0  0  0  0  0  0  0  0
   -1.6980  -10.4880  -24.7220 C   0  0  0  0  0  0  0  0  0  0  0  0
   -2.0180   -8.9900  -24.8500 C   0  0  0  0  0  0  0  0  0  0  0  0
   -2.3330   -8.5690  -23.4070 C   0  0  0  0  0  0  0  0  0  0  0  0
   -4.6220  -11.7120  -21.1980 C   0  0  0  0  0  0  0  0  0  0  0  0
   -5.1680  -12.8300  -20.5680 C   0  0  0  0  0  0  0  0  0  0  0  0
   -4.6920  -13.2000  -19.3090 C   0  0  0  0  0  0  0  0  0  0  0  0
   -3.6790  -12.4690  -18.6730 C   0  0  0  0  0  0  0  0  0  0  0  0
   -0.5960   -8.7640  -18.0530 C   0  0  0  0  0  0  0  0  0  0  0  0
   -8.8410   -6.4690  -26.4820 N   0  0  0  0  0  0  0  0  0  0  0  0
  -10.0260  -10.4940  -27.6640 N   0  0  0  0  0  0  0  0  0  0  0  0
   -9.9640  -13.4090  -27.5990 N   0  0  0  0  0  0  0  0  0  0  0  0
   -5.1460   -5.7030  -21.1400 N   0  0  0  0  0  0  0  0  0  0  0  0
   -3.7180   -6.2810  -19.3500 N   0  0  0  0  0  0  0  0  0  0  0  0
   -1.7800   -9.2830  -18.7260 N   0  0  0  0  0  0  0  0  0  0  0  0
   -3.1060   -9.8510  -21.2930 N   0  0  0  0  0  0  0  0  0  0  0  0
   -4.0860   -7.7630  -21.1110 N   0  0  0  0  0  0  0  0  0  0  0  0
   -6.1610   -3.5120  -21.8660 O   0  0  0  0  0  0  0  0  0  0  0  0
   -7.4500   -4.6940  -26.8260 O   0  0  0  0  0  0  0  0  0  0  0  0
   -1.3510  -11.3010  -17.8470 O   0  0  0  0  0  0  0  0  0  0  0  0
   -8.3780  -37.9750  -28.1700 C   0  0  2  0  0  0  0  0  0  0  0  0
   -9.8090  -40.0100  -27.7980 C   0  0  0  0  0  0  0  0  0  0  0  0
   -9.1280  -43.7200  -28.5780 C   0  0  0  0  0  0  0  0  0  0  0  0
   -7.3240  -37.3570  -29.1190 C   0  0  0  0  0  0  0  0  0  0  0  0
   -7.0930  -35.8680  -28.7960 C   0  0  0  0  0  0  0  0  0  0  0  0
   -4.9930  -33.5540  -24.9280 C   0  0  0  0  0  0  0  0  0  0  0  0
   -2.5450  -35.7420  -21.3380 C   0  0  0  0  0  0  0  0  0  0  0  0
   -1.2080  -36.4100  -19.5140 C   0  0  0  0  0  0  0  0  0  0  0  0
   -3.6640  -30.2760  -22.5510 C   0  0  0  0  0  0  0  0  0  0  0  0
   -4.2170  -31.3020  -23.5450 C   0  0  0  0  0  0  0  0  0  0  0  0
   -4.3260  -33.6610  -23.7000 C   0  0  0  0  0  0  0  0  0  0  0  0
   -3.9090  -34.9080  -23.2200 C   0  0  0  0  0  0  0  0  0  0  0  0
   -4.1560  -36.0600  -23.9850 C   0  0  0  0  0  0  0  0  0  0  0  0
   -4.8030  -35.9520  -25.2040 C   0  0  0  0  0  0  0  0  0  0  0  0
   -5.2360  -34.7010  -25.7080 C   0  0  0  0  0  0  0  0  0  0  0  0
   -5.8970  -34.7260  -26.9750 C   0  0  0  0  0  0  0  0  0  0  0  0
   -7.7520  -36.2560  -26.3990 C   0  0  0  0  0  0  0  0  0  0  0  0
   -7.9550  -37.7620  -26.6950 C   0  0  0  0  0  0  0  0  0  0  0  0
  -10.0670  -41.4540  -28.2640 C   0  0  0  0  0  0  0  0  0  0  0  0
   -7.5910  -41.7640  -28.6590 C   0  0  0  0  0  0  0  0  0  0  0  0
   -7.3620  -40.2900  -28.2640 C   0  0  0  0  0  0  0  0  0  0  0  0
   -1.0410  -37.6920  -20.0610 C   0  0  0  0  0  0  0  0  0  0  0  0
   -0.6770  -39.9060  -19.1960 C   0  0  0  0  0  0  0  0  0  0  0  0
   -1.7950  -40.5070  -19.8490 C   0  0  0  0  0  0  0  0  0  0  0  0
   -2.2130  -40.1620  -21.1770 C   0  0  0  0  0  0  0  0  0  0  0  0
   -1.6670  -37.9560  -21.3040 C   0  0  1  0  0  0  0  0  0  0  0  0
   -1.5910  -39.2210  -23.4070 C   0  0  0  0  0  0  0  0  0  0  0  0
   -0.6340  -38.1990  -24.0780 C   0  0  0  0  0  0  0  0  0  0  0  0
   -0.3730  -38.7050  -25.5120 C   0  0  0  0  0  0  0  0  0  0  0  0
   -0.2760  -40.2240  -25.3200 C   0  0  0  0  0  0  0  0  0  0  0  0
   -1.2090  -40.5460  -24.1260 C   0  0  0  0  0  0  0  0  0  0  0  0
   -3.3440  -40.8240  -21.7320 C   0  0  0  0  0  0  0  0  0  0  0  0
   -4.0400  -41.8160  -21.0210 C   0  0  0  0  0  0  0  0  0  0  0  0
   -3.6250  -42.1500  -19.7260 C   0  0  0  0  0  0  0  0  0  0  0  0
   -2.5180  -41.5110  -19.1470 C   0  0  0  0  0  0  0  0  0  0  0  0
    1.0120  -38.1700  -18.8310 C   0  0  0  0  0  0  0  0  0  0  0  0
   -6.9660  -35.5240  -27.3870 N   0  0  0  0  0  0  0  0  0  0  0  0
   -8.5770  -39.4300  -28.4170 N   0  0  0  0  0  0  0  0  0  0  0  0
   -8.8690  -42.3290  -28.1230 N   0  0  0  0  0  0  0  0  0  0  0  0
   -3.2890  -34.8370  -22.0140 N   0  0  0  0  0  0  0  0  0  0  0  0
   -1.9410  -35.4850  -20.1630 N   0  0  0  0  0  0  0  0  0  0  0  0
   -0.2620  -38.6140  -19.4010 N   0  0  0  0  0  0  0  0  0  0  0  0
   -1.5850  -39.1800  -21.9350 N   0  0  0  0  0  0  0  0  0  0  0  0
   -2.4110  -36.9790  -21.8880 N   0  0  0  0  0  0  0  0  0  0  0  0
   -4.0700  -32.5790  -22.8980 O   0  0  0  0  0  0  0  0  0  0  0  0
   -5.4040  -33.9410  -27.8310 O   0  0  0  0  0  0  0  0  0  0  0  0
   -0.0220  -40.6020  -18.3900 O   0  0  0  0  0  0  0  0  0  0  0  0
  1 18  1  1  0  0  0
  1 38  1  0  0  0  0
  2 19  1  0  0  0  0
  4  1  1  0  0  0  0
  5  4  1  0  0  0  0
  7 41  2  0  0  0  0
  7 40  1  0  0  0  0
  8 41  1  0  0  0  0
 10  9  1  0  0  0  0
 11  6  1  0  0  0  0
 11 45  1  0  0  0  0
 12 11  2  0  0  0  0
 13 14  2  0  0  0  0
 13 12  1  0  0  0  0
 14 15  1  0  0  0  0
 15 16  1  0  0  0  0
 15  6  2  0  0  0  0
 16 37  1  0  0  0  0
 17 18  1  0  0  0  0
 19 39  1  0  0  0  0
 20 39  1  0  0  0  0
 21 20  1  0  0  0  0
 22  8  2  0  0  0  0
 23 42  1  0  0  0  0
 24 23  1  0  0  0  0
 24 25  1  0  0  0  0
 25 43  1  0  0  0  0
 26 22  1  1  0  0  0
 26 44  1  0  0  0  0
 27 43  1  0  0  0  0
 27 31  1  0  0  0  0
 28 27  1  0  0  0  0
 29 28  1  0  0  0  0
 29 30  1  0  0  0  0
 30 31  1  0  0  0  0
 32 25  2  0  0  0  0
 33 32  1  0  0  0  0
 34 35  1  0  0  0  0
 34 33  2  0  0  0  0
 35 24  2  0  0  0  0
 37 17  1  0  0  0  0
 37  5  1  0  0  0  0
 38  2  1  0  0  0  0
 38 21  1  0  0  0  0
 39  3  1  0  0  0  0
 40 12  1  0  0  0  0
 42 36  1  0  0  0  0
 42 22  1  0  0  0  0
 43 26  1  0  0  0  0
 44  7  2  0  0  0  0
 45 10  1  0  0  0  0
 46 16  2  0  0  0  0
 47 23  2  0  0  0  0
 48 85  1  6  0  0  0
 48 65  1  0  0  0  0
 48 51  1  0  0  0  0
 49 85  1  0  0  0  0
 50 86  1  0  0  0  0
 51 52  1  0  0  0  0
 52 84  1  0  0  0  0
 53 58  2  0  0  0  0
 53 62  1  0  0  0  0
 54 91  2  0  0  0  0
 55 69  2  0  0  0  0
 56 57  1  0  0  0  0
 57 92  1  0  0  0  0
 58 59  1  0  0  0  0
 59 87  1  0  0  0  0
 59 60  2  0  0  0  0
 61 60  1  0  0  0  0
 62 61  2  0  0  0  0
 63 62  1  0  0  0  0
 63 93  2  0  0  0  0
 64 84  1  0  0  0  0
 65 64  1  0  0  0  0
 66 49  1  0  0  0  0
 67 68  1  0  0  0  0
 68 85  1  0  0  0  0
 69 73  1  0  0  0  0
 69 89  1  0  0  0  0
 70 71  1  0  0  0  0
 70 94  2  0  0  0  0
 71 82  1  0  0  0  0
 72 79  1  0  0  0  0
 72 71  2  0  0  0  0
 73 91  1  6  0  0  0
 73 90  1  0  0  0  0
 74 75  1  0  0  0  0
 75 76  1  0  0  0  0
 77 76  1  0  0  0  0
 78 74  1  0  0  0  0
 78 77  1  0  0  0  0
 79 80  2  0  0  0  0
 80 81  1  0  0  0  0
 82 81  2  0  0  0  0
 84 63  1  0  0  0  0
 86 66  1  0  0  0  0
 86 67  1  0  0  0  0
 87 54  1  0  0  0  0
 88 54  2  0  0  0  0
 88 55  1  0  0  0  0
 89 83  1  0  0  0  0
 89 70  1  0  0  0  0
 90 74  1  0  0  0  0
 90 72  1  0  0  0  0
 92 58  1  0  0  0  0
 95112  1  6  0  0  0
 95 98  1  0  0  0  0
 97133  1  0  0  0  0
 98 99  1  0  0  0  0
100105  1  0  0  0  0
101135  2  0  0  0  0
104139  1  0  0  0  0
104103  1  0  0  0  0
105106  2  0  0  0  0
105139  1  0  0  0  0
106134  1  0  0  0  0
107106  1  0  0  0  0
108107  2  0  0  0  0
109108  1  0  0  0  0
109100  2  0  0  0  0
110109  1  0  0  0  0
111131  1  0  0  0  0
112111  1  0  0  0  0
113133  1  0  0  0  0
113 96  1  0  0  0  0
114133  1  0  0  0  0
114115  1  0  0  0  0
116102  1  0  0  0  0
116136  1  0  0  0  0
117141  2  0  0  0  0
118129  1  0  0  0  0
118117  1  0  0  0  0
119118  2  0  0  0  0
120116  2  0  0  0  0
121137  1  0  0  0  0
122121  1  0  0  0  0
123122  1  0  0  0  0
124123  1  0  0  0  0
124125  1  0  0  0  0
125121  1  0  0  0  0
126119  1  0  0  0  0
126127  2  0  0  0  0
127128  1  0  0  0  0
128129  2  0  0  0  0
131110  1  0  0  0  0
131 99  1  0  0  0  0
132 96  1  0  0  0  0
132 95  1  0  0  0  0
132115  1  0  0  0  0
134101  1  0  0  0  0
135102  1  0  0  0  0
136117  1  0  0  0  0
136130  1  0  0  0  0
137119  1  0  0  0  0
137120  1  0  0  0  0
138120  1  0  0  0  0
138101  2  0  0  0  0
140110  2  0  0  0  0
142145  1  6  0  0  0
142159  1  0  0  0  0
144180  1  0  0  0  0
145146  1  0  0  0  0
146178  1  0  0  0  0
147152  1  0  0  0  0
148182  2  0  0  0  0
151186  1  0  0  0  0
151150  1  0  0  0  0
152153  2  0  0  0  0
152186  1  0  0  0  0
153181  1  0  0  0  0
154153  1  0  0  0  0
155154  2  0  0  0  0
156155  1  0  0  0  0
156147  2  0  0  0  0
157156  1  0  0  0  0
159158  1  0  0  0  0
160180  1  0  0  0  0
160143  1  0  0  0  0
161162  1  0  0  0  0
161180  1  0  0  0  0
163149  2  0  0  0  0
163183  1  0  0  0  0
164188  2  0  0  0  0
165164  1  0  0  0  0
165176  1  0  0  0  0
166165  2  0  0  0  0
167185  1  1  0  0  0
167163  1  0  0  0  0
168184  1  0  0  0  0
169168  1  0  0  0  0
170171  1  0  0  0  0
170169  1  0  0  0  0
171172  1  0  0  0  0
172168  1  0  0  0  0
173166  1  0  0  0  0
173174  2  0  0  0  0
174175  1  0  0  0  0
175176  2  0  0  0  0
178157  1  0  0  0  0
178158  1  0  0  0  0
179162  1  0  0  0  0
179142  1  0  0  0  0
179143  1  0  0  0  0
181148  1  0  0  0  0
182149  1  0  0  0  0
183164  1  0  0  0  0
183177  1  0  0  0  0
184167  1  0  0  0  0
184166  1  0  0  0  0
185148  2  0  0  0  0
187157  2  0  0  0  0
M  END
$$$$
