/Users/chinazoemeh/HopeMScP/data/ligands/BRD4-BD1_BRD4-BD1_25_8PIQ/BRD4-BD1_BRD4-BD1_25_8PIQ.pdb
 OpenBabel07142514423D

 20 18  0  0  0  0  0  0  0  0999 V2000
   22.0430    4.9270   -5.4190 C   0  0  0  0  0  0  0  0  0  0  0  0
   22.6170    6.0820   -6.0440 O   0  0  0  0  0  0  0  0  0  0  0  0
   21.3810    4.1150   -6.4390 C   0  0  0  0  0  0  0  0  0  0  0  0
   20.3100    4.7810   -7.1340 O   0  0  0  0  0  0  0  0  0  0  0  0
   21.3330    5.1990   -4.6270 H   0  0  0  0  0  0  0  0  0  0  0  0
   22.8690    4.3510   -4.9900 H   0  0  0  0  0  0  0  0  0  0  0  0
   22.5580    6.8300   -5.4220 H   0  0  0  0  0  0  0  0  0  0  0  0
   20.9300    3.2380   -5.9660 H   0  0  0  0  0  0  0  0  0  0  0  0
   22.0980    3.7880   -7.2010 H   0  0  0  0  0  0  0  0  0  0  0  0
   20.0150    5.5020   -6.5900 H   0  0  0  0  0  0  0  0  0  0  0  0
   13.8700    1.0260  -28.6950 C   0  0  0  0  0  0  0  0  0  0  0  0
   14.9340    1.1260  -27.7770 O   0  0  0  0  0  0  0  0  0  0  0  0
   14.2500    1.4640  -30.0940 C   0  0  0  0  0  0  0  0  0  0  0  0
   15.3760    0.7180  -30.5580 O   0  0  0  0  0  0  0  0  0  0  0  0
   13.0300    1.6430  -28.3520 H   0  0  0  0  0  0  0  0  0  0  0  0
   13.5460   -0.0210  -28.6670 H   0  0  0  0  0  0  0  0  0  0  0  0
   15.7710    0.8210  -28.1780 H   0  0  0  0  0  0  0  0  0  0  0  0
   14.4730    2.5410  -30.0920 H   0  0  0  0  0  0  0  0  0  0  0  0
   13.4170    1.2810  -30.7740 H   0  0  0  0  0  0  0  0  0  0  0  0
   16.1960    1.2360  -30.4520 H   0  0  0  0  0  0  0  0  0  0  0  0
  1  6  1  0  0  0  0
  1  5  1  0  0  0  0
  2  7  1  0  0  0  0
  2  1  1  0  0  0  0
  3  8  1  0  0  0  0
  3  1  1  0  0  0  0
  4 10  1  0  0  0  0
  4  3  1  0  0  0  0
  9  3  1  0  0  0  0
 11 16  1  0  0  0  0
 11 15  1  0  0  0  0
 11 12  1  0  0  0  0
 13 18  1  0  0  0  0
 13 11  1  0  0  0  0
 14 20  1  0  0  0  0
 14 13  1  0  0  0  0
 17 12  1  0  0  0  0
 19 13  1  0  0  0  0
M  END
$$$$
