/Users/chinazoemeh/HopeMScP/data/ligands/BRD4-BD1_BRD4-BD1_64_6VUJ/BRD4-BD1_BRD4-BD1_64_6VUJ.pdb
 OpenBabel07142514423D

  4  3  0  0  0  0  0  0  0  0999 V2000
   -1.9670    7.0690  -13.2210 N   0  0  0  0  0  0  0  0  0  0  0  0
   -1.0860    7.1470  -12.3150 O   0  0  0  0  0  0  0  0  0  0  0  0
   -3.1730    6.8550  -12.9120 O   0  0  0  0  0  0  0  0  0  0  0  0
   -1.6340    7.1910  -14.4350 O   0  0  0  0  0  0  0  0  0  0  0  0
  1  3  1  0  0  0  0
  1  2  2  0  0  0  0
  4  1  2  0  0  0  0
M  END
$$$$
