/Users/chinazoemeh/HopeMScP/data/ligands/BRD4-BD1_BRD4-BD1_8_5N15/BRD4-BD1_BRD4-BD1_8_5N15.pdb
 OpenBabel07142514423D

 23  0  0  0  0  0  0  0  0  0999 V2000
    1.1150   19.8660  -13.8870 I   0  0  0  0  0  0  0  0  0  0  0  0
   14.1980   14.0150  -11.1400 I   0  0  0  0  0  0  0  0  0  0  0  0
   -0.2590   10.4700    4.1240 I   0  0  0  0  0  0  0  0  0  0  0  0
    7.6810   11.6590  -12.0920 I   0  0  0  0  0  0  0  0  0  0  0  0
   17.5810   12.1690  -10.6130 I   0  0  0  0  0  0  0  0  0  0  0  0
   15.8370  -13.9230   -0.5970 I   0  0  0  0  0  0  0  0  0  0  0  0
    8.4950    0.6880    6.2140 I   0  0  0  0  0  0  0  0  0  0  0  0
    7.3520   -9.2150  -13.7110 I   0  0  0  0  0  0  0  0  0  0  0  0
   -3.9600   -0.6410    0.1980 I   0  0  0  0  0  0  0  0  0  0  0  0
    6.0340   28.3960    8.3860 I   0  0  0  0  0  0  0  0  0  0  0  0
   -0.6030   21.4990   12.4930 I   0  0  0  0  0  0  0  0  0  0  0  0
   11.7930    4.9320   15.2100 I   0  0  0  0  0  0  0  0  0  0  0  0
   -0.8490    8.1900   30.1460 I   0  0  0  0  0  0  0  0  0  0  0  0
    0.9290    3.7670    6.7830 I   0  0  0  0  0  0  0  0  0  0  0  0
   -7.6830   -4.7890   24.4200 I   0  0  0  0  0  0  0  0  0  0  0  0
   29.2040  -15.4110   41.7950 I   0  0  0  0  0  0  0  0  0  0  0  0
   22.7770  -30.8080   26.2260 I   0  0  0  0  0  0  0  0  0  0  0  0
   -7.1550  -33.9730   24.2440 I   0  0  0  0  0  0  0  0  0  0  0  0
   27.5520  -15.7520   28.0870 I   0  0  0  0  0  0  0  0  0  0  0  0
   38.4340   22.9900   28.8040 I   0  0  0  0  0  0  0  0  0  0  0  0
    8.3940   22.7610   33.0510 I   0  0  0  0  0  0  0  0  0  0  0  0
    3.8230   14.7530   45.6450 I   0  0  0  0  0  0  0  0  0  0  0  0
   41.0400   32.2310   35.7550 I   0  0  0  0  0  0  0  0  0  0  0  0
M  END
$$$$
