/Users/chinazoemeh/HopeMScP/data/ligands/BRD4-BD1_BRD4-BD1_107_6U72/BRD4-BD1_BRD4-BD1_107_6U72.pdb
 OpenBabel07142514433D

 24 22  0  0  1  0  0  0  0  0999 V2000
   45.6730  -12.5010   15.7520 O   0  0  0  0  0  0  0  0  0  0  0  0
   46.7750  -11.9170   15.6860 C   0  0  0  0  0  0  0  0  0  0  0  0
   47.2020  -11.2020   14.4270 C   0  0  0  0  0  0  0  0  0  0  0  0
   47.6660  -11.8870   16.7500 N   0  0  0  0  0  0  0  0  0  0  0  0
   47.4460  -12.5000   18.0320 C   0  0  0  0  0  0  0  0  0  0  0  0
   48.6540  -12.4590   18.9740 C   0  0  0  0  0  0  0  0  0  0  0  0
   48.3030  -13.0790   20.3120 C   0  0  0  0  0  0  0  0  0  0  0  0
   47.5860  -12.0760   21.1800 C   0  0  0  0  0  0  0  0  0  0  0  0
   47.3770  -12.6090   22.6070 C   0  0  2  0  0  0  0  0  0  0  0  0
   46.2620  -11.9970   23.3010 N   0  0  0  0  0  0  0  0  0  0  0  0
   48.6670  -12.3920   23.3850 C   0  0  0  0  0  0  0  0  0  0  0  0
   49.0230  -11.3050   23.8530 O   0  0  0  0  0  0  0  0  0  0  0  0
   62.6600   -5.3140   18.5800 O   0  0  0  0  0  0  0  0  0  0  0  0
   63.8170   -5.3770   18.1100 C   0  0  0  0  0  0  0  0  0  0  0  0
   64.4100   -4.2340   17.3180 C   0  0  0  0  0  0  0  0  0  0  0  0
   64.6040   -6.5020   18.3000 N   0  0  0  0  0  0  0  0  0  0  0  0
   64.1600   -7.6580   19.0350 C   0  0  0  0  0  0  0  0  0  0  0  0
   64.2830   -7.5570   20.5580 C   0  0  0  0  0  0  0  0  0  0  0  0
   63.7600   -8.8260   21.2130 C   0  0  0  0  0  0  0  0  0  0  0  0
   64.0420   -8.8620   22.7030 C   0  0  0  0  0  0  0  0  0  0  0  0
   63.3430  -10.0330   23.4310 C   0  0  2  0  0  0  0  0  0  0  0  0
   61.9270   -9.8460   23.6530 N   0  0  0  0  0  0  0  0  0  0  0  0
   64.0290  -10.2360   24.7730 C   0  0  0  0  0  0  0  0  0  0  0  0
   65.1170  -10.7920   24.9170 O   0  0  0  0  0  0  0  0  0  0  0  0
  2  1  2  0  0  0  0
  2  4  1  0  0  0  0
  3  2  1  0  0  0  0
  4  5  1  0  0  0  0
  5  6  1  0  0  0  0
  6  7  1  0  0  0  0
  7  8  1  0  0  0  0
  8  9  1  0  0  0  0
  9 10  1  1  0  0  0
  9 11  1  0  0  0  0
 11 12  2  0  0  0  0
 14 16  1  0  0  0  0
 14 13  2  0  0  0  0
 15 14  1  0  0  0  0
 16 17  1  0  0  0  0
 17 18  1  0  0  0  0
 18 19  1  0  0  0  0
 19 20  1  0  0  0  0
 20 21  1  0  0  0  0
 21 22  1  1  0  0  0
 21 23  1  0  0  0  0
 23 24  2  0  0  0  0
M  END
$$$$
