/Users/chinazoemeh/HopeMScP/data/ligands/BRD4-BD1_BRD4-BD1_97_9FXP/BRD4-BD1_BRD4-BD1_97_9FXP.pdb
 OpenBabel07142514423D

 12 13  0  0  0  0  0  0  0  0999 V2000
   27.1180   15.3430   -0.8580 C   0  0  0  0  0  0  0  0  0  0  0  0
   28.2970   15.9310   -0.3050 O   0  0  0  0  0  0  0  0  0  0  0  0
   29.5040   15.6190   -0.8730 C   0  0  0  0  0  0  0  0  0  0  0  0
   30.6140   16.2930   -0.3340 C   0  0  0  0  0  0  0  0  0  0  0  0
   30.8600   17.2840    0.7120 C   0  0  0  0  0  0  0  0  0  0  0  0
   29.9370   17.8420    1.5150 N   0  0  0  0  0  0  0  0  0  0  0  0
   32.1860   17.5690    0.7500 N   0  0  0  0  0  0  0  0  0  0  0  0
   32.8300   16.7860   -0.2520 O   0  0  0  0  0  0  0  0  0  0  0  0
   31.8740   16.0460   -0.8730 C   0  0  0  0  0  0  0  0  0  0  0  0
   32.0490   15.1520   -1.9190 C   0  0  0  0  0  0  0  0  0  0  0  0
   30.9440   14.4890   -2.4370 C   0  0  0  0  0  0  0  0  0  0  0  0
   29.6750   14.7170   -1.9210 C   0  0  0  0  0  0  0  0  0  0  0  0
  1  2  1  0  0  0  0
  3  4  1  0  0  0  0
  3  2  1  0  0  0  0
  4  5  1  0  0  0  0
  5  7  2  0  0  0  0
  5  6  1  0  0  0  0
  8  7  1  0  0  0  0
  9  4  2  0  0  0  0
  9  8  1  0  0  0  0
 10  9  1  0  0  0  0
 11 12  1  0  0  0  0
 11 10  2  0  0  0  0
 12  3  2  0  0  0  0
M  END
$$$$
