/Users/chinazoemeh/HopeMScP/data/ligands/ache/AChE_34_5HF6/AChE_34_5HF6.pdb
 OpenBabel07172512173D

 70 72  0  0  1  0  0  0  0  0999 V2000
  -22.8100  -59.9040   22.0570 C   0  0  0  0  0  0  0  0  0  0  0  0
  -23.7370  -60.4220   20.9490 C   0  0  1  0  0  0  0  0  0  0  0  0
  -24.1630  -59.2790   20.0290 C   0  0  2  0  0  0  0  0  0  0  0  0
  -24.7390  -58.1310   20.8460 C   0  0  1  0  0  0  0  0  0  0  0  0
  -23.7470  -57.7190   21.9280 C   0  0  1  0  0  0  0  0  0  0  0  0
  -24.2530  -56.6170   22.8360 C   0  0  0  0  0  0  0  0  0  0  0  0
  -23.6860  -62.6840   19.9950 C   0  0  0  0  0  0  0  0  0  0  0  0
  -25.0560  -62.8630   20.5900 C   0  0  0  0  0  0  0  0  0  0  0  0
  -23.1080  -61.4930   20.1910 N   0  0  0  0  0  0  0  0  0  0  0  0
  -25.1370  -59.7430   19.1010 O   0  0  0  0  0  0  0  0  0  0  0  0
  -25.0150  -57.0240   19.9970 O   0  0  0  0  0  0  0  0  0  0  0  0
  -23.4560  -58.8510   22.7610 O   0  0  0  0  0  0  0  0  0  0  0  0
  -25.6220  -56.7890   23.1800 O   0  0  0  0  0  0  0  0  0  0  0  0
  -23.1320  -63.5760   19.3600 O   0  0  0  0  0  0  0  0  0  0  0  0
  -26.4070  -56.6810   20.1420 C   0  0  1  0  0  0  0  0  0  0  0  0
  -26.5770  -55.2350   19.6870 C   0  0  1  0  0  0  0  0  0  0  0  0
  -28.0410  -54.8120   19.8070 C   0  0  2  0  0  0  0  0  0  0  0  0
  -28.9370  -55.7940   19.0590 C   0  0  1  0  0  0  0  0  0  0  0  0
  -28.6620  -57.2270   19.5250 C   0  0  1  0  0  0  0  0  0  0  0  0
  -29.4270  -58.2660   18.7380 C   0  0  0  0  0  0  0  0  0  0  0  0
  -24.6190  -53.7810   19.9200 C   0  0  0  0  0  0  0  0  0  0  0  0
  -23.8380  -52.8790   20.8320 C   0  0  0  0  0  0  0  0  0  0  0  0
  -25.7160  -54.3400   20.4430 N   0  0  0  0  0  0  0  0  0  0  0  0
  -28.2060  -53.4990   19.2790 O   0  0  0  0  0  0  0  0  0  0  0  0
  -30.3100  -55.4670   19.2530 O   0  0  0  0  0  0  0  0  0  0  0  0
  -27.2670  -57.5360   19.3690 O   0  0  0  0  0  0  0  0  0  0  0  0
  -30.7030  -57.7810   18.3410 O   0  0  0  0  0  0  0  0  0  0  0  0
  -24.2750  -53.9900   18.7580 O   0  0  0  0  0  0  0  0  0  0  0  0
   25.3990  -54.5660  -11.4740 C   0  0  0  0  0  0  0  0  0  0  0  0
   26.2200  -53.4690  -10.8130 C   0  0  1  0  0  0  0  0  0  0  0  0
   25.5400  -52.1270  -11.0160 C   0  0  2  0  0  0  0  0  0  0  0  0
   25.4410  -51.8440  -12.5090 C   0  0  1  0  0  0  0  0  0  0  0  0
   24.6900  -52.9840  -13.2140 C   0  0  1  0  0  0  0  0  0  0  0  0
   24.7420  -52.8860  -14.7280 C   0  0  0  0  0  0  0  0  0  0  0  0
   27.6670  -53.9960   -8.9070 C   0  0  0  0  0  0  0  0  0  0  0  0
   28.8010  -53.9930   -9.8970 C   0  0  0  0  0  0  0  0  0  0  0  0
   26.4500  -53.7350   -9.4020 N   0  0  0  0  0  0  0  0  0  0  0  0
   26.2700  -51.0990  -10.3550 O   0  0  0  0  0  0  0  0  0  0  0  0
   24.7870  -50.5970  -12.7230 O   0  0  0  0  0  0  0  0  0  0  0  0
   25.2460  -54.2720  -12.8760 O   0  0  0  0  0  0  0  0  0  0  0  0
   26.0220  -52.4750  -15.1980 O   0  0  0  0  0  0  0  0  0  0  0  0
   27.8470  -54.2240   -7.7150 O   0  0  0  0  0  0  0  0  0  0  0  0
   25.5790  -49.7170  -13.5620 C   0  0  1  0  0  0  0  0  0  0  0  0
   24.6460  -48.6170  -14.0760 C   0  0  1  0  0  0  0  0  0  0  0  0
   25.4170  -47.6320  -14.9620 C   0  0  2  0  0  0  0  0  0  0  0  0
   26.6460  -47.1050  -14.2270 C   0  0  1  0  0  0  0  0  0  0  0  0
   27.4980  -48.2710  -13.7280 C   0  0  1  0  0  0  0  0  0  0  0  0
   28.6960  -47.8290  -12.9190 C   0  0  0  0  0  0  0  0  0  0  0  0
   22.2910  -49.2760  -14.2780 C   0  0  0  0  0  0  0  0  0  0  0  0
   21.2510  -49.9140  -15.1470 C   0  0  0  0  0  0  0  0  0  0  0  0
   23.5210  -49.1940  -14.7960 N   0  0  0  0  0  0  0  0  0  0  0  0
   24.5670  -46.5490  -15.3270 O   0  0  0  0  0  0  0  0  0  0  0  0
   27.4220  -46.2590  -15.0710 O   0  0  0  0  0  0  0  0  0  0  0  0
   26.7060  -49.1180  -12.8780 O   0  0  0  0  0  0  0  0  0  0  0  0
   28.3040  -47.2150  -11.6980 O   0  0  0  0  0  0  0  0  0  0  0  0
   22.0300  -48.8520  -13.1570 O   0  0  0  0  0  0  0  0  0  0  0  0
   -9.0260  -36.5690  -46.3050 C   0  0  0  0  0  0  0  0  0  0  0  0
  -10.5390  -36.2730  -46.3000 C   0  0  1  0  0  0  0  0  0  0  0  0
  -11.2430  -36.9570  -47.4860 C   0  0  2  0  0  0  0  0  0  0  0  0
  -10.5090  -36.7380  -48.8060 C   0  0  1  0  0  0  0  0  0  0  0  0
   -9.0360  -37.1020  -48.6490 C   0  0  1  0  0  0  0  0  0  0  0  0
   -8.1890  -36.8620  -49.8860 C   0  0  0  0  0  0  0  0  0  0  0  0
  -12.1230  -36.0750  -44.4160 C   0  0  0  0  0  0  0  0  0  0  0  0
  -12.6210  -36.7080  -43.1500 C   0  0  0  0  0  0  0  0  0  0  0  0
  -11.1330  -36.7190  -45.0470 N   0  0  0  0  0  0  0  0  0  0  0  0
  -12.5660  -36.4410  -47.5840 O   0  0  0  0  0  0  0  0  0  0  0  0
  -11.1050  -37.5390  -49.8240 O   0  0  0  0  0  0  0  0  0  0  0  0
   -8.4790  -36.2960  -47.6030 O   0  0  0  0  0  0  0  0  0  0  0  0
   -8.9320  -36.3590  -50.9890 O   0  0  0  0  0  0  0  0  0  0  0  0
  -12.5890  -35.0250  -44.8410 O   0  0  0  0  0  0  0  0  0  0  0  0
  1 12  1  0  0  0  0
  2  9  1  6  0  0  0
  2  1  1  0  0  0  0
  3 10  1  6  0  0  0
  3  4  1  0  0  0  0
  3  2  1  0  0  0  0
  4 11  1  6  0  0  0
  4  5  1  0  0  0  0
  5 12  1  0  0  0  0
  5  6  1  1  0  0  0
  6 13  1  0  0  0  0
  7  9  1  0  0  0  0
  7  8  1  0  0  0  0
 14  7  2  0  0  0  0
 15 11  1  6  0  0  0
 16 17  1  0  0  0  0
 16 15  1  0  0  0  0
 16 23  1  1  0  0  0
 17 24  1  6  0  0  0
 18 25  1  1  0  0  0
 18 19  1  0  0  0  0
 18 17  1  0  0  0  0
 19 20  1  6  0  0  0
 21 23  1  0  0  0  0
 21 22  1  0  0  0  0
 26 19  1  0  0  0  0
 26 15  1  0  0  0  0
 27 20  1  0  0  0  0
 28 21  2  0  0  0  0
 29 30  1  0  0  0  0
 30 37  1  1  0  0  0
 31 30  1  0  0  0  0
 31 38  1  1  0  0  0
 32 39  1  1  0  0  0
 32 31  1  0  0  0  0
 33 34  1  6  0  0  0
 33 40  1  0  0  0  0
 33 32  1  0  0  0  0
 35 42  2  0  0  0  0
 36 35  1  0  0  0  0
 37 35  1  0  0  0  0
 40 29  1  0  0  0  0
 41 34  1  0  0  0  0
 43 54  1  0  0  0  0
 43 39  1  1  0  0  0
 44 51  1  6  0  0  0
 44 43  1  0  0  0  0
 45 52  1  1  0  0  0
 45 46  1  0  0  0  0
 45 44  1  0  0  0  0
 46 53  1  6  0  0  0
 46 47  1  0  0  0  0
 47 48  1  1  0  0  0
 47 54  1  0  0  0  0
 48 55  1  0  0  0  0
 49 56  2  0  0  0  0
 50 49  1  0  0  0  0
 51 49  1  0  0  0  0
 57 58  1  0  0  0  0
 58 65  1  1  0  0  0
 59 66  1  6  0  0  0
 59 58  1  0  0  0  0
 60 67  1  6  0  0  0
 60 61  1  0  0  0  0
 60 59  1  0  0  0  0
 61 62  1  6  0  0  0
 61 68  1  0  0  0  0
 63 64  1  0  0  0  0
 65 63  1  0  0  0  0
 68 57  1  0  0  0  0
 69 62  1  0  0  0  0
 70 63  2  0  0  0  0
M  END
$$$$
