/Users/chinazoemeh/HopeMScP/data/ligands/ache/AChE_18_6O4X/AChE_18_6O4X.pdb
 OpenBabel07172512173D

 30 25  0  0  0  0  0  0  0  0999 V2000
   91.7530   47.6810   -7.4010 C   0  0  0  0  0  0  0  0  0  0  0  0
   91.4600   46.3710   -6.9660 O   0  0  0  0  0  0  0  0  0  0  0  0
   93.0040   48.1950   -6.6960 C   0  0  0  0  0  0  0  0  0  0  0  0
   93.6100   49.2120   -7.4600 O   0  0  0  0  0  0  0  0  0  0  0  0
   93.9990   47.0610   -6.4900 C   0  0  0  0  0  0  0  0  0  0  0  0
   95.2130   47.6040   -6.0210 O   0  0  0  0  0  0  0  0  0  0  0  0
  109.2010   44.5170   -5.7560 C   0  0  0  0  0  0  0  0  0  0  0  0
  109.1720   43.4610   -4.8210 O   0  0  0  0  0  0  0  0  0  0  0  0
  110.3330   44.3280   -6.7620 C   0  0  0  0  0  0  0  0  0  0  0  0
  110.0350   45.0580   -7.9320 O   0  0  0  0  0  0  0  0  0  0  0  0
  110.4800   42.8530   -7.1200 C   0  0  0  0  0  0  0  0  0  0  0  0
  111.7740   42.5920   -7.6180 O   0  0  0  0  0  0  0  0  0  0  0  0
  100.1090   30.0190  -18.2800 C   0  0  0  0  0  0  0  0  0  0  0  0
  100.2190   29.3000  -19.4900 O   0  0  0  0  0  0  0  0  0  0  0  0
   98.6420   30.1190  -17.8770 C   0  0  0  0  0  0  0  0  0  0  0  0
   98.5240   30.9250  -16.7240 O   0  0  0  0  0  0  0  0  0  0  0  0
   97.8520   30.7510  -19.0170 C   0  0  0  0  0  0  0  0  0  0  0  0
   98.0080   32.1510  -18.9900 O   0  0  0  0  0  0  0  0  0  0  0  0
   87.8900   58.1130   14.3190 C   0  0  0  0  0  0  0  0  0  0  0  0
   89.1200   58.8010   14.3820 O   0  0  0  0  0  0  0  0  0  0  0  0
   88.1520   56.6200   14.1600 C   0  0  0  0  0  0  0  0  0  0  0  0
   89.5000   56.3500   14.4710 O   0  0  0  0  0  0  0  0  0  0  0  0
   87.2490   55.8390   15.1080 C   0  0  0  0  0  0  0  0  0  0  0  0
   85.8980   56.0830   14.7850 O   0  0  0  0  0  0  0  0  0  0  0  0
   92.7020   72.1420   13.4270 C   0  0  0  0  0  0  0  0  0  0  0  0
   92.3520   72.8610   12.2650 O   0  0  0  0  0  0  0  0  0  0  0  0
   93.6900   72.9390   14.2770 C   0  0  0  0  0  0  0  0  0  0  0  0
   93.5890   72.5420   15.6270 O   0  0  0  0  0  0  0  0  0  0  0  0
   93.4340   74.4380   14.1630 C   0  0  0  0  0  0  0  0  0  0  0  0
   92.3200   74.7990   14.9500 O   0  0  0  0  0  0  0  0  0  0  0  0
  1  2  1  0  0  0  0
  1  3  1  0  0  0  0
  3  5  1  0  0  0  0
  4  3  1  0  0  0  0
  5  6  1  0  0  0  0
  7  8  1  0  0  0  0
  9  7  1  0  0  0  0
 10  9  1  0  0  0  0
 11  9  1  0  0  0  0
 12 11  1  0  0  0  0
 13 15  1  0  0  0  0
 14 13  1  0  0  0  0
 15 16  1  0  0  0  0
 17 18  1  0  0  0  0
 17 15  1  0  0  0  0
 19 20  1  0  0  0  0
 21 19  1  0  0  0  0
 21 22  1  0  0  0  0
 21 23  1  0  0  0  0
 24 23  1  0  0  0  0
 25 27  1  0  0  0  0
 26 25  1  0  0  0  0
 27 28  1  0  0  0  0
 29 27  1  0  0  0  0
 29 30  1  0  0  0  0
M  END
$$$$
