/Users/chinazoemeh/HopeMScP/data/ligands/ache/AChE_43_6NTH/AChE_43_6NTH.pdb
 OpenBabel07172512173D

112115  0  0  1  0  0  0  0  0999 V2000
   59.2820    5.1560   11.8630 C   0  0  0  0  0  0  0  0  0  0  0  0
   58.5690    4.0480   11.0850 C   0  0  1  0  0  0  0  0  0  0  0  0
   57.0910    3.9930   11.4700 C   0  0  2  0  0  0  0  0  0  0  0  0
   56.9290    3.8750   12.9800 C   0  0  1  0  0  0  0  0  0  0  0  0
   57.7120    4.9850   13.6820 C   0  0  1  0  0  0  0  0  0  0  0  0
   57.7210    4.8510   15.1880 C   0  0  0  0  0  0  0  0  0  0  0  0
   59.5050    3.4820    8.8840 C   0  0  0  0  0  0  0  0  0  0  0  0
   60.2530    2.3880    9.5860 C   0  0  0  0  0  0  0  0  0  0  0  0
   58.7160    4.2420    9.6510 N   0  0  0  0  0  0  0  0  0  0  0  0
   56.4720    2.8860   10.8240 O   0  0  0  0  0  0  0  0  0  0  0  0
   55.5500    3.9820   13.3170 O   0  0  0  0  0  0  0  0  0  0  0  0
   59.0850    4.9610   13.2640 O   0  0  0  0  0  0  0  0  0  0  0  0
   58.2200    3.5820   15.5920 O   0  0  0  0  0  0  0  0  0  0  0  0
   59.6090    3.6700    7.6750 O   0  0  0  0  0  0  0  0  0  0  0  0
   55.1070    2.8620   14.1210 C   0  0  1  0  0  0  0  0  0  0  0  0
   53.7050    3.1860   14.6460 C   0  0  1  0  0  0  0  0  0  0  0  0
   53.1600    2.0180   15.4670 C   0  0  2  0  0  0  0  0  0  0  0  0
   53.2470    0.7200   14.6760 C   0  0  1  0  0  0  0  0  0  0  0  0
   54.6690    0.5080   14.1670 C   0  0  1  0  0  0  0  0  0  0  0  0
   54.8110   -0.7140   13.2890 C   0  0  0  0  0  0  0  0  0  0  0  0
   53.2440    5.5710   14.9960 C   0  0  0  0  0  0  0  0  0  0  0  0
   53.3480    6.7240   15.9450 C   0  0  0  0  0  0  0  0  0  0  0  0
   53.7200    4.4040   15.4390 N   0  0  0  0  0  0  0  0  0  0  0  0
   51.8060    2.2800   15.8200 O   0  0  0  0  0  0  0  0  0  0  0  0
   52.8720   -0.3790   15.4980 O   0  0  0  0  0  0  0  0  0  0  0  0
   55.0730    1.6370   13.3790 O   0  0  0  0  0  0  0  0  0  0  0  0
   54.2350   -0.5080   12.0060 O   0  0  0  0  0  0  0  0  0  0  0  0
   52.7490    5.6900   13.8800 O   0  0  0  0  0  0  0  0  0  0  0  0
   26.4630   25.3310   46.1510 C   0  0  0  0  0  0  0  0  0  0  0  0
   25.3520   26.3530   46.3720 C   0  0  1  0  0  0  0  0  0  0  0  0
   25.8680   27.5060   47.2310 C   0  0  2  0  0  0  0  0  0  0  0  0
   26.5300   26.9880   48.5020 C   0  0  1  0  0  0  0  0  0  0  0  0
   27.5640   25.9120   48.1700 C   0  0  1  0  0  0  0  0  0  0  0  0
   28.1560   25.2390   49.3870 C   0  0  0  0  0  0  0  0  0  0  0  0
   23.6920   26.4420   44.5650 C   0  0  0  0  0  0  0  0  0  0  0  0
   23.3180   27.0710   43.2560 C   0  0  0  0  0  0  0  0  0  0  0  0
   24.8430   26.8540   45.1050 N   0  0  0  0  0  0  0  0  0  0  0  0
   24.7910   28.3750   47.5670 O   0  0  0  0  0  0  0  0  0  0  0  0
   27.1620   28.0770   49.1650 O   0  0  0  0  0  0  0  0  0  0  0  0
   26.9450   24.8780   47.3990 O   0  0  0  0  0  0  0  0  0  0  0  0
   27.1700   24.5170   50.1130 O   0  0  0  0  0  0  0  0  0  0  0  0
   22.9860   25.5970   45.1060 O   0  0  0  0  0  0  0  0  0  0  0  0
   26.7060   28.1140   50.5290 C   0  0  1  0  0  0  0  0  0  0  0  0
   27.6120   29.0310   51.3430 C   0  0  1  0  0  0  0  0  0  0  0  0
   26.8700   29.5770   52.5530 C   0  0  2  0  0  0  0  0  0  0  0  0
   25.8390   28.5610   53.0150 C   0  0  1  0  0  0  0  0  0  0  0  0
   24.7840   28.3480   51.9360 C   0  0  1  0  0  0  0  0  0  0  0  0
   23.6160   29.3100   52.1230 C   0  0  0  0  0  0  0  0  0  0  0  0
   29.8370   28.1340   50.9850 C   0  0  0  0  0  0  0  0  0  0  0  0
   29.8700   29.0050   49.7630 C   0  0  0  0  0  0  0  0  0  0  0  0
   28.7810   28.2920   51.7770 N   0  0  0  0  0  0  0  0  0  0  0  0
   26.2160   30.8020   52.2040 O   0  0  0  0  0  0  0  0  0  0  0  0
   26.4870   27.3180   53.3040 O   0  0  0  0  0  0  0  0  0  0  0  0
   25.3450   28.5330   50.6340 O   0  0  0  0  0  0  0  0  0  0  0  0
   24.0550   30.6490   51.8650 O   0  0  0  0  0  0  0  0  0  0  0  0
   30.7230   27.3330   51.2350 O   0  0  0  0  0  0  0  0  0  0  0  0
   22.7600   59.0320   21.7290 C   0  0  0  0  0  0  0  0  0  0  0  0
   23.4470   59.4660   20.4220 C   0  0  1  0  0  0  0  0  0  0  0  0
   23.8320   58.2490   19.5740 C   0  0  2  0  0  0  0  0  0  0  0  0
   24.5760   57.2110   20.4050 C   0  0  1  0  0  0  0  0  0  0  0  0
   23.7620   56.8770   21.6490 C   0  0  1  0  0  0  0  0  0  0  0  0
   24.4450   55.9060   22.5820 C   0  0  0  0  0  0  0  0  0  0  0  0
   22.8810   61.6280   19.3870 C   0  0  0  0  0  0  0  0  0  0  0  0
   24.2070   62.1150   19.8900 C   0  0  0  0  0  0  0  0  0  0  0  0
   22.5780   60.3550   19.6660 N   0  0  0  0  0  0  0  0  0  0  0  0
   24.6540   58.6690   18.4910 O   0  0  0  0  0  0  0  0  0  0  0  0
   24.8000   56.0380   19.6310 O   0  0  0  0  0  0  0  0  0  0  0  0
   23.5610   58.0790   22.3990 O   0  0  0  0  0  0  0  0  0  0  0  0
   25.5970   56.5020   23.1590 O   0  0  0  0  0  0  0  0  0  0  0  0
   22.1200   62.3520   18.7520 O   0  0  0  0  0  0  0  0  0  0  0  0
   26.1930   55.6680   19.7200 C   0  0  1  0  0  0  0  0  0  0  0  0
   26.3410   54.2170   19.2540 C   0  0  1  0  0  0  0  0  0  0  0  0
   27.8110   53.7930   19.2800 C   0  0  2  0  0  0  0  0  0  0  0  0
   28.6840   54.8050   18.5480 C   0  0  1  0  0  0  0  0  0  0  0  0
   28.4170   56.2120   19.0740 C   0  0  1  0  0  0  0  0  0  0  0  0
   29.1800   57.2860   18.3350 C   0  0  0  0  0  0  0  0  0  0  0  0
   24.4820   52.6470   19.6260 C   0  0  0  0  0  0  0  0  0  0  0  0
   23.7770   51.7840   20.6290 C   0  0  0  0  0  0  0  0  0  0  0  0
   25.5400   53.3280   20.0810 N   0  0  0  0  0  0  0  0  0  0  0  0
   27.9460   52.5130   18.6720 O   0  0  0  0  0  0  0  0  0  0  0  0
   30.0580   54.4870   18.7390 O   0  0  0  0  0  0  0  0  0  0  0  0
   27.0230   56.5180   18.9320 O   0  0  0  0  0  0  0  0  0  0  0  0
   29.0560   58.5430   18.9860 O   0  0  0  0  0  0  0  0  0  0  0  0
   24.1120   52.7220   18.4590 O   0  0  0  0  0  0  0  0  0  0  0  0
   81.5360   19.2330   24.9540 C   0  0  0  0  0  0  0  0  0  0  0  0
   80.6360   18.6150   26.0320 C   0  0  1  0  0  0  0  0  0  0  0  0
   81.4830   17.9070   27.0920 C   0  0  2  0  0  0  0  0  0  0  0  0
   82.4690   16.9400   26.4470 C   0  0  1  0  0  0  0  0  0  0  0  0
   83.2820   17.6560   25.3750 C   0  0  1  0  0  0  0  0  0  0  0  0
   84.2170   16.7380   24.6210 C   0  0  0  0  0  0  0  0  0  0  0  0
   78.4720   19.7040   26.4800 C   0  0  0  0  0  0  0  0  0  0  0  0
   77.8610   18.6590   25.5960 C   0  0  0  0  0  0  0  0  0  0  0  0
   79.7980   19.6310   26.6500 N   0  0  0  0  0  0  0  0  0  0  0  0
   80.6310   17.2020   27.9880 O   0  0  0  0  0  0  0  0  0  0  0  0
   83.3530   16.4140   27.4320 O   0  0  0  0  0  0  0  0  0  0  0  0
   82.3930   18.2280   24.4070 O   0  0  0  0  0  0  0  0  0  0  0  0
   84.9510   17.4430   23.6290 O   0  0  0  0  0  0  0  0  0  0  0  0
   77.7970   20.5770   27.0170 O   0  0  0  0  0  0  0  0  0  0  0  0
   19.8050    7.9210   24.2270 C   0  0  0  0  0  0  0  0  0  0  0  0
   19.1050    6.5410   24.2730 C   0  0  1  0  0  0  0  0  0  0  0  0
   19.8620    5.5640   25.1790 C   0  0  2  0  0  0  0  0  0  0  0  0
   21.3420    5.5210   24.8310 C   0  0  1  0  0  0  0  0  0  0  0  0
   21.9110    6.9280   24.8970 C   0  0  1  0  0  0  0  0  0  0  0  0
   23.3690    6.9920   24.5110 C   0  0  0  0  0  0  0  0  0  0  0  0
   16.6780    6.7460   23.9010 C   0  0  0  0  0  0  0  0  0  0  0  0
   15.3360    6.8650   24.5600 C   0  0  0  0  0  0  0  0  0  0  0  0
   17.7290    6.6720   24.7250 N   0  0  0  0  0  0  0  0  0  0  0  0
   19.3010    4.2640   25.0370 O   0  0  0  0  0  0  0  0  0  0  0  0
   22.0400    4.6830   25.7450 O   0  0  0  0  0  0  0  0  0  0  0  0
   21.2050    7.7510   23.9640 O   0  0  0  0  0  0  0  0  0  0  0  0
   23.5400    6.7830   23.1160 O   0  0  0  0  0  0  0  0  0  0  0  0
   16.8040    6.7250   22.6810 O   0  0  0  0  0  0  0  0  0  0  0  0
  1 12  1  0  0  0  0
  2  9  1  6  0  0  0
  2  3  1  0  0  0  0
  2  1  1  0  0  0  0
  3 10  1  6  0  0  0
  3  4  1  0  0  0  0
  4 11  1  6  0  0  0
  4  5  1  0  0  0  0
  5  6  1  1  0  0  0
  6 13  1  0  0  0  0
  7  8  1  0  0  0  0
  7  9  1  0  0  0  0
 12  5  1  0  0  0  0
 14  7  2  0  0  0  0
 15 11  1  6  0  0  0
 15 16  1  0  0  0  0
 16 23  1  1  0  0  0
 16 17  1  0  0  0  0
 17 24  1  6  0  0  0
 18 17  1  0  0  0  0
 18 25  1  1  0  0  0
 19 20  1  6  0  0  0
 19 18  1  0  0  0  0
 21 23  1  0  0  0  0
 21 22  1  0  0  0  0
 26 15  1  0  0  0  0
 26 19  1  0  0  0  0
 27 20  1  0  0  0  0
 28 21  2  0  0  0  0
 29 30  1  0  0  0  0
 29 40  1  0  0  0  0
 30 37  1  6  0  0  0
 30 31  1  0  0  0  0
 31 38  1  1  0  0  0
 31 32  1  0  0  0  0
 32 39  1  6  0  0  0
 33 32  1  0  0  0  0
 33 34  1  1  0  0  0
 34 41  1  0  0  0  0
 35 37  1  0  0  0  0
 35 42  2  0  0  0  0
 36 35  1  0  0  0  0
 40 33  1  0  0  0  0
 43 39  1  6  0  0  0
 43 54  1  0  0  0  0
 43 44  1  0  0  0  0
 44 51  1  1  0  0  0
 44 45  1  0  0  0  0
 45 52  1  6  0  0  0
 45 46  1  0  0  0  0
 46 53  1  6  0  0  0
 47 48  1  1  0  0  0
 47 46  1  0  0  0  0
 49 56  2  0  0  0  0
 49 51  1  0  0  0  0
 50 49  1  0  0  0  0
 54 47  1  0  0  0  0
 55 48  1  0  0  0  0
 57 68  1  0  0  0  0
 58 65  1  6  0  0  0
 58 57  1  0  0  0  0
 59 66  1  6  0  0  0
 59 60  1  0  0  0  0
 59 58  1  0  0  0  0
 60 67  1  6  0  0  0
 60 61  1  0  0  0  0
 61 68  1  0  0  0  0
 61 62  1  1  0  0  0
 62 69  1  0  0  0  0
 63 65  1  0  0  0  0
 63 64  1  0  0  0  0
 70 63  2  0  0  0  0
 71 67  1  6  0  0  0
 72 73  1  0  0  0  0
 72 71  1  0  0  0  0
 72 79  1  1  0  0  0
 73 80  1  6  0  0  0
 74 81  1  1  0  0  0
 74 75  1  0  0  0  0
 74 73  1  0  0  0  0
 75 76  1  6  0  0  0
 76 83  1  0  0  0  0
 77 79  1  0  0  0  0
 77 78  1  0  0  0  0
 82 75  1  0  0  0  0
 82 71  1  0  0  0  0
 84 77  2  0  0  0  0
 85 86  1  0  0  0  0
 86 93  1  1  0  0  0
 86 87  1  0  0  0  0
 87 94  1  1  0  0  0
 88 87  1  0  0  0  0
 88 95  1  1  0  0  0
 89 90  1  6  0  0  0
 89 88  1  0  0  0  0
 91 93  1  0  0  0  0
 91 98  2  0  0  0  0
 92 91  1  0  0  0  0
 96 85  1  0  0  0  0
 96 89  1  0  0  0  0
 97 90  1  0  0  0  0
 99100  1  0  0  0  0
100107  1  1  0  0  0
100101  1  0  0  0  0
101108  1  6  0  0  0
102103  1  0  0  0  0
102101  1  0  0  0  0
102109  1  1  0  0  0
103104  1  6  0  0  0
105106  1  0  0  0  0
105107  1  0  0  0  0
110 99  1  0  0  0  0
110103  1  0  0  0  0
111104  1  0  0  0  0
112105  2  0  0  0  0
M  END
$$$$
