/Users/chinazoemeh/HopeMScP/data/ligands/ache/AChE_62_5HF5/AChE_62_5HF5.pdb
 OpenBabel07172512173D

 70 72  0  0  1  0  0  0  0  0999 V2000
  -22.8840  -59.1600   21.9830 C   0  0  0  0  0  0  0  0  0  0  0  0
  -23.7850  -59.6980   20.8680 C   0  0  1  0  0  0  0  0  0  0  0  0
  -24.1820  -58.5750   19.9170 C   0  0  2  0  0  0  0  0  0  0  0  0
  -24.7580  -57.3990   20.6920 C   0  0  1  0  0  0  0  0  0  0  0  0
  -23.8030  -56.9850   21.8100 C   0  0  1  0  0  0  0  0  0  0  0  0
  -24.3510  -55.8890   22.7000 C   0  0  0  0  0  0  0  0  0  0  0  0
  -23.7450  -61.9510   19.8840 C   0  0  0  0  0  0  0  0  0  0  0  0
  -25.1510  -62.1000   20.3910 C   0  0  0  0  0  0  0  0  0  0  0  0
  -23.1430  -60.7820   20.1410 N   0  0  0  0  0  0  0  0  0  0  0  0
  -25.1590  -59.0640   19.0060 O   0  0  0  0  0  0  0  0  0  0  0  0
  -24.9700  -56.3140   19.7970 O   0  0  0  0  0  0  0  0  0  0  0  0
  -23.5430  -58.1140   22.6580 O   0  0  0  0  0  0  0  0  0  0  0  0
  -25.7350  -56.0760   22.9690 O   0  0  0  0  0  0  0  0  0  0  0  0
  -23.1800  -62.8490   19.2670 O   0  0  0  0  0  0  0  0  0  0  0  0
  -26.3640  -55.9400   19.8420 C   0  0  1  0  0  0  0  0  0  0  0  0
  -26.4780  -54.4730   19.4420 C   0  0  1  0  0  0  0  0  0  0  0  0
  -27.9380  -54.0290   19.5050 C   0  0  2  0  0  0  0  0  0  0  0  0
  -28.8190  -54.9590   18.6730 C   0  0  1  0  0  0  0  0  0  0  0  0
  -28.5670  -56.4310   19.0290 C   0  0  1  0  0  0  0  0  0  0  0  0
  -29.2670  -57.3950   18.0950 C   0  0  0  0  0  0  0  0  0  0  0  0
  -24.5770  -52.9650   19.8180 C   0  0  0  0  0  0  0  0  0  0  0  0
  -23.8330  -52.1330   20.8200 C   0  0  0  0  0  0  0  0  0  0  0  0
  -25.6440  -53.6270   20.2820 N   0  0  0  0  0  0  0  0  0  0  0  0
  -28.0440  -52.6860   19.0410 O   0  0  0  0  0  0  0  0  0  0  0  0
  -30.1940  -54.6500   18.8860 O   0  0  0  0  0  0  0  0  0  0  0  0
  -27.1650  -56.7400   18.9560 O   0  0  0  0  0  0  0  0  0  0  0  0
  -30.6360  -57.0550   17.9220 O   0  0  0  0  0  0  0  0  0  0  0  0
  -24.2290  -53.0340   18.6380 O   0  0  0  0  0  0  0  0  0  0  0  0
   25.3570  -54.1420  -11.3770 C   0  0  0  0  0  0  0  0  0  0  0  0
   26.1380  -53.0300  -10.6840 C   0  0  1  0  0  0  0  0  0  0  0  0
   25.4910  -51.6880  -10.9680 C   0  0  2  0  0  0  0  0  0  0  0  0
   25.4550  -51.4490  -12.4710 C   0  0  1  0  0  0  0  0  0  0  0  0
   24.7360  -52.6140  -13.1700 C   0  0  1  0  0  0  0  0  0  0  0  0
   24.8150  -52.5590  -14.6840 C   0  0  0  0  0  0  0  0  0  0  0  0
   27.4250  -53.5540   -8.6690 C   0  0  0  0  0  0  0  0  0  0  0  0
   28.6200  -53.6400   -9.5840 C   0  0  0  0  0  0  0  0  0  0  0  0
   26.2570  -53.2580   -9.2530 N   0  0  0  0  0  0  0  0  0  0  0  0
   26.2160  -50.6530  -10.3130 O   0  0  0  0  0  0  0  0  0  0  0  0
   24.7970  -50.2110  -12.7260 O   0  0  0  0  0  0  0  0  0  0  0  0
   25.3050  -53.8800  -12.7860 O   0  0  0  0  0  0  0  0  0  0  0  0
   26.0740  -52.0720  -15.1360 O   0  0  0  0  0  0  0  0  0  0  0  0
   27.5160  -53.7520   -7.4590 O   0  0  0  0  0  0  0  0  0  0  0  0
   25.6070  -49.3090  -13.5380 C   0  0  1  0  0  0  0  0  0  0  0  0
   24.6850  -48.2150  -14.1000 C   0  0  1  0  0  0  0  0  0  0  0  0
   25.4840  -47.2500  -14.9830 C   0  0  2  0  0  0  0  0  0  0  0  0
   26.6970  -46.7110  -14.2300 C   0  0  1  0  0  0  0  0  0  0  0  0
   27.5320  -47.8620  -13.6660 C   0  0  1  0  0  0  0  0  0  0  0  0
   28.7100  -47.3970  -12.8380 C   0  0  0  0  0  0  0  0  0  0  0  0
   22.3530  -48.9330  -14.3430 C   0  0  0  0  0  0  0  0  0  0  0  0
   21.3380  -49.5700  -15.2450 C   0  0  0  0  0  0  0  0  0  0  0  0
   23.5840  -48.8030  -14.8470 N   0  0  0  0  0  0  0  0  0  0  0  0
   24.6440  -46.1780  -15.4060 O   0  0  0  0  0  0  0  0  0  0  0  0
   27.5100  -45.9200  -15.0920 O   0  0  0  0  0  0  0  0  0  0  0  0
   26.7160  -48.6900  -12.8190 O   0  0  0  0  0  0  0  0  0  0  0  0
   28.4190  -47.4170  -11.4460 O   0  0  0  0  0  0  0  0  0  0  0  0
   22.0710  -48.5520  -13.2080 O   0  0  0  0  0  0  0  0  0  0  0  0
   -8.5790  -35.7240  -46.3170 C   0  0  0  0  0  0  0  0  0  0  0  0
  -10.1030  -35.4150  -46.2250 C   0  0  1  0  0  0  0  0  0  0  0  0
  -10.8220  -35.3160  -47.6090 C   0  0  2  0  0  0  0  0  0  0  0  0
  -10.1100  -35.9510  -48.8120 C   0  0  1  0  0  0  0  0  0  0  0  0
   -8.6840  -36.3910  -48.5220 C   0  0  1  0  0  0  0  0  0  0  0  0
   -7.7820  -36.4090  -49.7410 C   0  0  0  0  0  0  0  0  0  0  0  0
  -11.6960  -35.9400  -44.4270 C   0  0  0  0  0  0  0  0  0  0  0  0
  -12.3320  -37.0220  -43.6010 C   0  0  0  0  0  0  0  0  0  0  0  0
  -10.7990  -36.3420  -45.3420 N   0  0  0  0  0  0  0  0  0  0  0  0
  -11.1500  -33.9570  -47.8830 O   0  0  0  0  0  0  0  0  0  0  0  0
  -10.8740  -37.0320  -49.3380 O   0  0  0  0  0  0  0  0  0  0  0  0
   -8.1190  -35.4660  -47.5970 O   0  0  0  0  0  0  0  0  0  0  0  0
   -8.2430  -35.5610  -50.7850 O   0  0  0  0  0  0  0  0  0  0  0  0
  -11.9810  -34.7540  -44.2710 O   0  0  0  0  0  0  0  0  0  0  0  0
  1 12  1  0  0  0  0
  2  9  1  6  0  0  0
  2  1  1  0  0  0  0
  3 10  1  6  0  0  0
  3  4  1  0  0  0  0
  3  2  1  0  0  0  0
  4 11  1  6  0  0  0
  4  5  1  0  0  0  0
  5 12  1  0  0  0  0
  5  6  1  1  0  0  0
  6 13  1  0  0  0  0
  7  9  1  0  0  0  0
  7  8  1  0  0  0  0
 14  7  2  0  0  0  0
 15 11  1  6  0  0  0
 16 17  1  0  0  0  0
 16 15  1  0  0  0  0
 16 23  1  1  0  0  0
 17 24  1  6  0  0  0
 18 25  1  1  0  0  0
 18 19  1  0  0  0  0
 18 17  1  0  0  0  0
 19 20  1  6  0  0  0
 21 23  1  0  0  0  0
 21 22  1  0  0  0  0
 26 19  1  0  0  0  0
 26 15  1  0  0  0  0
 27 20  1  0  0  0  0
 28 21  2  0  0  0  0
 29 30  1  0  0  0  0
 30 37  1  1  0  0  0
 31 30  1  0  0  0  0
 31 38  1  1  0  0  0
 32 39  1  1  0  0  0
 32 31  1  0  0  0  0
 33 34  1  6  0  0  0
 33 40  1  0  0  0  0
 33 32  1  0  0  0  0
 35 42  2  0  0  0  0
 36 35  1  0  0  0  0
 37 35  1  0  0  0  0
 40 29  1  0  0  0  0
 41 34  1  0  0  0  0
 43 54  1  0  0  0  0
 43 39  1  1  0  0  0
 44 51  1  6  0  0  0
 44 43  1  0  0  0  0
 45 52  1  1  0  0  0
 45 46  1  0  0  0  0
 45 44  1  0  0  0  0
 46 53  1  6  0  0  0
 46 47  1  0  0  0  0
 47 48  1  1  0  0  0
 47 54  1  0  0  0  0
 48 55  1  0  0  0  0
 49 56  2  0  0  0  0
 50 49  1  0  0  0  0
 51 49  1  0  0  0  0
 57 58  1  0  0  0  0
 58 65  1  1  0  0  0
 59 66  1  6  0  0  0
 59 58  1  0  0  0  0
 60 67  1  1  0  0  0
 60 61  1  0  0  0  0
 60 59  1  0  0  0  0
 61 62  1  6  0  0  0
 61 68  1  0  0  0  0
 63 70  2  0  0  0  0
 63 64  1  0  0  0  0
 65 63  1  0  0  0  0
 68 57  1  0  0  0  0
 69 62  1  0  0  0  0
M  END
$$$$
