/Users/chinazoemeh/HopeMScP/data/ligands/ache/AChE_2_7D9P/AChE_2_7D9P.pdb
 OpenBabel07172512173D

 56 58  0  0  1  0  0  0  0  0999 V2000
   22.8610   58.2490   21.3420 C   0  0  0  0  0  0  0  0  0  0  0  0
   23.5870   58.8680   20.1330 C   0  0  1  0  0  0  0  0  0  0  0  0
   24.1120   57.7870   19.1850 C   0  0  2  0  0  0  0  0  0  0  0  0
   24.8340   56.6810   19.9430 C   0  0  1  0  0  0  0  0  0  0  0  0
   23.9460   56.1900   21.0810 C   0  0  1  0  0  0  0  0  0  0  0  0
   24.5760   55.1260   21.9440 C   0  0  0  0  0  0  0  0  0  0  0  0
   22.9470   61.0780   19.2360 C   0  0  0  0  0  0  0  0  0  0  0  0
   24.2340   61.5940   19.8050 C   0  0  0  0  0  0  0  0  0  0  0  0
   22.6980   59.7760   19.4220 N   0  0  0  0  0  0  0  0  0  0  0  0
   24.9980   58.3880   18.2460 O   0  0  0  0  0  0  0  0  0  0  0  0
   25.1140   55.6170   19.0400 O   0  0  0  0  0  0  0  0  0  0  0  0
   23.6730   57.2960   21.9430 O   0  0  0  0  0  0  0  0  0  0  0  0
   25.9120   55.4890   22.2630 O   0  0  0  0  0  0  0  0  0  0  0  0
   22.1650   61.8080   18.6310 O   0  0  0  0  0  0  0  0  0  0  0  0
   26.4620   55.1380   19.2150 C   0  0  1  0  0  0  0  0  0  0  0  0
   26.4750   53.7200   18.6310 C   0  0  1  0  0  0  0  0  0  0  0  0
   27.8900   53.1300   18.6400 C   0  0  2  0  0  0  0  0  0  0  0  0
   28.9240   54.1210   18.1190 C   0  0  1  0  0  0  0  0  0  0  0  0
   28.7500   55.4650   18.8100 C   0  0  1  0  0  0  0  0  0  0  0  0
   29.7040   56.5300   18.3240 C   0  0  0  0  0  0  0  0  0  0  0  0
   24.4550   52.3350   18.8810 C   0  0  0  0  0  0  0  0  0  0  0  0
   23.6480   51.4900   19.8210 C   0  0  0  0  0  0  0  0  0  0  0  0
   25.5710   52.8680   19.3870 N   0  0  0  0  0  0  0  0  0  0  0  0
   27.9000   51.9650   17.8230 O   0  0  0  0  0  0  0  0  0  0  0  0
   30.2340   53.6310   18.3800 O   0  0  0  0  0  0  0  0  0  0  0  0
   27.4230   55.9370   18.5570 O   0  0  0  0  0  0  0  0  0  0  0  0
   29.8420   57.5680   19.2850 O   0  0  0  0  0  0  0  0  0  0  0  0
   24.1140   52.5210   17.7180 O   0  0  0  0  0  0  0  0  0  0  0  0
   59.0420    4.8600   11.7660 C   0  0  0  0  0  0  0  0  0  0  0  0
   58.5550    3.8180   10.7590 C   0  0  1  0  0  0  0  0  0  0  0  0
   57.0740    3.5040   10.9670 C   0  0  2  0  0  0  0  0  0  0  0  0
   56.7600    3.2490   12.4350 C   0  0  1  0  0  0  0  0  0  0  0  0
   57.3300    4.3770   13.2890 C   0  0  1  0  0  0  0  0  0  0  0  0
   57.1510    4.1820   14.7750 C   0  0  0  0  0  0  0  0  0  0  0  0
   59.6270    3.7030    8.5400 C   0  0  0  0  0  0  0  0  0  0  0  0
   60.3350    2.4780    9.0370 C   0  0  0  0  0  0  0  0  0  0  0  0
   58.7870    4.2900    9.4020 N   0  0  0  0  0  0  0  0  0  0  0  0
   56.7390    2.3570   10.1950 O   0  0  0  0  0  0  0  0  0  0  0  0
   55.3480    3.1930   12.5930 O   0  0  0  0  0  0  0  0  0  0  0  0
   58.7380    4.4470   13.0580 O   0  0  0  0  0  0  0  0  0  0  0  0
   57.4700    2.8500   15.1490 O   0  0  0  0  0  0  0  0  0  0  0  0
   59.8020    4.1390    7.4060 O   0  0  0  0  0  0  0  0  0  0  0  0
   54.9750    2.0690   13.4040 C   0  0  1  0  0  0  0  0  0  0  0  0
   53.5730    2.3880   13.9250 C   0  0  1  0  0  0  0  0  0  0  0  0
   52.9880    1.2080   14.7110 C   0  0  2  0  0  0  0  0  0  0  0  0
   53.1970   -0.1170   13.9860 C   0  0  1  0  0  0  0  0  0  0  0  0
   54.6490   -0.2480   13.5540 C   0  0  1  0  0  0  0  0  0  0  0  0
   54.9480   -1.5140   12.7860 C   0  0  0  0  0  0  0  0  0  0  0  0
   53.0420    4.7390   14.4330 C   0  0  0  0  0  0  0  0  0  0  0  0
   53.2030    5.8520   15.4250 C   0  0  0  0  0  0  0  0  0  0  0  0
   53.6120    3.5760   14.7620 N   0  0  0  0  0  0  0  0  0  0  0  0
   51.5950    1.4320   14.8930 O   0  0  0  0  0  0  0  0  0  0  0  0
   52.8710   -1.1960   14.8540 O   0  0  0  0  0  0  0  0  0  0  0  0
   54.9670    0.8530   12.6980 O   0  0  0  0  0  0  0  0  0  0  0  0
   56.3350   -1.8180   12.8260 O   0  0  0  0  0  0  0  0  0  0  0  0
   52.4200    4.8850   13.3860 O   0  0  0  0  0  0  0  0  0  0  0  0
  1 12  1  0  0  0  0
  2  9  1  6  0  0  0
  2  1  1  0  0  0  0
  3 10  1  6  0  0  0
  3  4  1  0  0  0  0
  3  2  1  0  0  0  0
  4 11  1  6  0  0  0
  4  5  1  0  0  0  0
  5 12  1  0  0  0  0
  5  6  1  1  0  0  0
  6 13  1  0  0  0  0
  7  9  1  0  0  0  0
  7  8  1  0  0  0  0
 14  7  2  0  0  0  0
 15 11  1  6  0  0  0
 16 17  1  0  0  0  0
 16 15  1  0  0  0  0
 16 23  1  1  0  0  0
 17 24  1  6  0  0  0
 18 25  1  1  0  0  0
 18 17  1  0  0  0  0
 18 19  1  0  0  0  0
 19 20  1  6  0  0  0
 20 27  1  0  0  0  0
 21 23  1  0  0  0  0
 21 22  1  0  0  0  0
 26 19  1  0  0  0  0
 26 15  1  0  0  0  0
 28 21  2  0  0  0  0
 29 40  1  0  0  0  0
 30 37  1  6  0  0  0
 30 31  1  0  0  0  0
 30 29  1  0  0  0  0
 31 38  1  6  0  0  0
 31 32  1  0  0  0  0
 32 39  1  6  0  0  0
 32 33  1  0  0  0  0
 33 34  1  1  0  0  0
 34 41  1  0  0  0  0
 35 36  1  0  0  0  0
 35 37  1  0  0  0  0
 40 33  1  0  0  0  0
 42 35  2  0  0  0  0
 43 39  1  6  0  0  0
 43 44  1  0  0  0  0
 44 45  1  0  0  0  0
 44 51  1  1  0  0  0
 45 52  1  6  0  0  0
 46 45  1  0  0  0  0
 46 53  1  1  0  0  0
 47 48  1  6  0  0  0
 47 46  1  0  0  0  0
 48 55  1  0  0  0  0
 49 51  1  0  0  0  0
 49 50  1  0  0  0  0
 54 43  1  0  0  0  0
 54 47  1  0  0  0  0
 56 49  2  0  0  0  0
M  END
$$$$
