/Users/chinazoemeh/HopeMScP/data/ligands/ache/AChE_39_6CQX/AChE_39_6CQX.pdb
 OpenBabel07172512173D

 98101  0  0  1  0  0  0  0  0999 V2000
  -34.0100   49.2420  -43.1900 C   0  0  0  0  0  0  0  0  0  0  0  0
  -32.6740   48.9590  -43.8710 C   0  0  1  0  0  0  0  0  0  0  0  0
  -32.0100   47.7170  -43.2950 C   0  0  2  0  0  0  0  0  0  0  0  0
  -31.9350   47.8280  -41.7800 C   0  0  1  0  0  0  0  0  0  0  0  0
  -33.3210   48.0960  -41.2090 C   0  0  1  0  0  0  0  0  0  0  0  0
  -33.2680   48.2280  -39.6920 C   0  0  0  0  0  0  0  0  0  0  0  0
  -32.9530   49.8490  -46.1110 C   0  0  0  0  0  0  0  0  0  0  0  0
  -31.7110   50.1710  -46.8880 C   0  0  0  0  0  0  0  0  0  0  0  0
  -32.8690   48.7990  -45.2990 N   0  0  0  0  0  0  0  0  0  0  0  0
  -30.6900   47.5850  -43.8330 O   0  0  0  0  0  0  0  0  0  0  0  0
  -31.4190   46.6090  -41.2350 O   0  0  0  0  0  0  0  0  0  0  0  0
  -33.8630   49.2930  -41.7690 O   0  0  0  0  0  0  0  0  0  0  0  0
  -32.5510   49.4170  -39.3400 O   0  0  0  0  0  0  0  0  0  0  0  0
  -33.9750   50.5070  -46.2180 O   0  0  0  0  0  0  0  0  0  0  0  0
  -30.2280   46.9070  -40.4830 C   0  0  1  0  0  0  0  0  0  0  0  0
  -29.5670   45.6110  -40.0200 C   0  0  1  0  0  0  0  0  0  0  0  0
  -28.2670   45.8910  -39.2790 C   0  0  2  0  0  0  0  0  0  0  0  0
  -27.3750   46.7910  -40.1190 C   0  0  1  0  0  0  0  0  0  0  0  0
  -28.1310   48.0550  -40.5040 C   0  0  1  0  0  0  0  0  0  0  0  0
  -27.2610   48.9690  -41.3590 C   0  0  0  0  0  0  0  0  0  0  0  0
  -31.1810   43.8390  -39.6130 C   0  0  0  0  0  0  0  0  0  0  0  0
  -30.8450   43.3740  -40.9990 C   0  0  0  0  0  0  0  0  0  0  0  0
  -30.4640   44.8640  -39.1590 N   0  0  0  0  0  0  0  0  0  0  0  0
  -27.5910   44.6580  -39.0130 O   0  0  0  0  0  0  0  0  0  0  0  0
  -26.2050   47.1400  -39.3710 O   0  0  0  0  0  0  0  0  0  0  0  0
  -29.3160   47.7180  -41.2260 O   0  0  0  0  0  0  0  0  0  0  0  0
  -26.0190   49.2110  -40.6870 O   0  0  0  0  0  0  0  0  0  0  0  0
  -32.0550   43.3110  -38.9450 O   0  0  0  0  0  0  0  0  0  0  0  0
  -34.7130    9.9470   -8.1890 C   0  0  0  0  0  0  0  0  0  0  0  0
  -35.2970    8.5870   -7.8200 C   0  0  1  0  0  0  0  0  0  0  0  0
  -36.4930    8.7290   -6.8900 C   0  0  2  0  0  0  0  0  0  0  0  0
  -36.1220    9.6010   -5.7010 C   0  0  1  0  0  0  0  0  0  0  0  0
  -35.5620   10.9320   -6.1840 C   0  0  1  0  0  0  0  0  0  0  0  0
  -35.1620   11.8130   -5.0060 C   0  0  0  0  0  0  0  0  0  0  0  0
  -34.7930    7.2080   -9.7520 C   0  0  0  0  0  0  0  0  0  0  0  0
  -34.5130    5.7990   -9.3170 C   0  0  0  0  0  0  0  0  0  0  0  0
  -35.6840    7.8700   -9.0200 N   0  0  0  0  0  0  0  0  0  0  0  0
  -36.9000    7.4360   -6.4290 O   0  0  0  0  0  0  0  0  0  0  0  0
  -37.2830    9.8340   -4.8960 O   0  0  0  0  0  0  0  0  0  0  0  0
  -34.4240   10.7170   -7.0200 O   0  0  0  0  0  0  0  0  0  0  0  0
  -34.0270   11.2410   -4.3470 O   0  0  0  0  0  0  0  0  0  0  0  0
  -34.2380    7.7120  -10.7140 O   0  0  0  0  0  0  0  0  0  0  0  0
  -37.0960    9.1970   -3.6190 C   0  0  1  0  0  0  0  0  0  0  0  0
  -38.3070    9.4690   -2.7340 C   0  0  1  0  0  0  0  0  0  0  0  0
  -38.4410    8.3930   -1.6680 C   0  0  2  0  0  0  0  0  0  0  0  0
  -37.0640    7.8540   -1.3180 C   0  0  1  0  0  0  0  0  0  0  0  0
  -36.4380    7.1720   -2.5290 C   0  0  1  0  0  0  0  0  0  0  0  0
  -36.8000    5.6910   -2.5640 C   0  0  0  0  0  0  0  0  0  0  0  0
  -38.5080   11.8860   -2.7380 C   0  0  0  0  0  0  0  0  0  0  0  0
  -39.6160   11.7520   -3.7400 C   0  0  0  0  0  0  0  0  0  0  0  0
  -38.1640   10.7670   -2.1070 N   0  0  0  0  0  0  0  0  0  0  0  0
  -39.2640    7.3290   -2.1590 O   0  0  0  0  0  0  0  0  0  0  0  0
  -36.2240    8.9300   -0.8870 O   0  0  0  0  0  0  0  0  0  0  0  0
  -36.8710    7.7930   -3.7420 O   0  0  0  0  0  0  0  0  0  0  0  0
  -36.0640    5.0450   -3.6080 O   0  0  0  0  0  0  0  0  0  0  0  0
  -37.9570   12.9520   -2.5170 O   0  0  0  0  0  0  0  0  0  0  0  0
  -63.3770  -10.1200  -32.5120 C   0  0  0  0  0  0  0  0  0  0  0  0
  -64.0910   -9.4110  -33.6590 C   0  0  1  0  0  0  0  0  0  0  0  0
  -63.1440   -8.4950  -34.4210 C   0  0  2  0  0  0  0  0  0  0  0  0
  -62.4310   -7.5680  -33.4500 C   0  0  1  0  0  0  0  0  0  0  0  0
  -61.7450   -8.3820  -32.3610 C   0  0  1  0  0  0  0  0  0  0  0  0
  -61.0360   -7.4700  -31.3670 C   0  0  0  0  0  0  0  0  0  0  0  0
  -65.8340  -10.9740  -34.2980 C   0  0  0  0  0  0  0  0  0  0  0  0
  -66.4000  -10.7100  -32.9340 C   0  0  0  0  0  0  0  0  0  0  0  0
  -64.6700  -10.3870  -34.5620 N   0  0  0  0  0  0  0  0  0  0  0  0
  -63.8860   -7.7200  -35.3690 O   0  0  0  0  0  0  0  0  0  0  0  0
  -61.4560   -6.7930  -34.1560 O   0  0  0  0  0  0  0  0  0  0  0  0
  -62.7020   -9.1840  -31.6690 O   0  0  0  0  0  0  0  0  0  0  0  0
  -62.0080   -6.7060  -30.6430 O   0  0  0  0  0  0  0  0  0  0  0  0
  -66.4040  -11.6810  -35.1120 O   0  0  0  0  0  0  0  0  0  0  0  0
  -61.7940   -5.3990  -34.0310 C   0  0  1  0  0  0  0  0  0  0  0  0
  -60.6940   -4.5390  -34.6480 C   0  0  1  0  0  0  0  0  0  0  0  0
  -61.0550   -3.0610  -34.5960 C   0  0  2  0  0  0  0  0  0  0  0  0
  -62.4380   -2.8440  -35.1910 C   0  0  1  0  0  0  0  0  0  0  0  0
  -63.4500   -3.7340  -34.4840 C   0  0  1  0  0  0  0  0  0  0  0  0
  -64.8440   -3.5430  -35.0700 C   0  0  0  0  0  0  0  0  0  0  0  0
  -58.4970   -5.5600  -34.4480 C   0  0  0  0  0  0  0  0  0  0  0  0
  -57.2820   -5.7400  -33.5850 C   0  0  0  0  0  0  0  0  0  0  0  0
  -59.4360   -4.7540  -33.9590 N   0  0  0  0  0  0  0  0  0  0  0  0
  -60.0900   -2.3050  -35.3360 O   0  0  0  0  0  0  0  0  0  0  0  0
  -62.8160   -1.4710  -35.0380 O   0  0  0  0  0  0  0  0  0  0  0  0
  -63.0680   -5.1050  -34.6080 O   0  0  0  0  0  0  0  0  0  0  0  0
  -65.7960   -4.2690  -34.2840 O   0  0  0  0  0  0  0  0  0  0  0  0
  -58.6150   -6.1160  -35.5270 O   0  0  0  0  0  0  0  0  0  0  0  0
  -57.2290   60.9830  -28.9340 C   0  0  0  0  0  0  0  0  0  0  0  0
  -56.0940   60.7700  -27.9360 C   0  0  1  0  0  0  0  0  0  0  0  0
  -55.9450   61.9630  -27.0020 C   0  0  2  0  0  0  0  0  0  0  0  0
  -55.8390   63.2430  -27.8150 C   0  0  1  0  0  0  0  0  0  0  0  0
  -57.0240   63.3580  -28.7640 C   0  0  1  0  0  0  0  0  0  0  0  0
  -56.9270   64.6270  -29.6030 C   0  0  0  0  0  0  0  0  0  0  0  0
  -56.0120   58.3630  -27.6440 C   0  0  0  0  0  0  0  0  0  0  0  0
  -55.2200   58.3580  -28.9170 C   0  0  0  0  0  0  0  0  0  0  0  0
  -56.3280   59.5640  -27.1660 N   0  0  0  0  0  0  0  0  0  0  0  0
  -54.7690   61.8030  -26.2020 O   0  0  0  0  0  0  0  0  0  0  0  0
  -55.8190   64.3710  -26.9340 O   0  0  0  0  0  0  0  0  0  0  0  0
  -57.0780   62.2220  -29.6290 O   0  0  0  0  0  0  0  0  0  0  0  0
  -56.7520   65.7560  -28.7400 O   0  0  0  0  0  0  0  0  0  0  0  0
  -56.3460   57.3330  -27.0820 O   0  0  0  0  0  0  0  0  0  0  0  0
  1 12  1  0  0  0  0
  2  9  1  6  0  0  0
  2  3  1  0  0  0  0
  2  1  1  0  0  0  0
  3 10  1  6  0  0  0
  3  4  1  0  0  0  0
  4 11  1  1  0  0  0
  4  5  1  0  0  0  0
  5  6  1  1  0  0  0
  6 13  1  0  0  0  0
  7  9  1  0  0  0  0
  8  7  1  0  0  0  0
 12  5  1  0  0  0  0
 14  7  2  0  0  0  0
 15 11  1  6  0  0  0
 15 16  1  0  0  0  0
 16 17  1  0  0  0  0
 16 23  1  1  0  0  0
 17 24  1  6  0  0  0
 18 25  1  1  0  0  0
 18 17  1  0  0  0  0
 19 20  1  6  0  0  0
 19 18  1  0  0  0  0
 20 27  1  0  0  0  0
 21 23  1  0  0  0  0
 21 28  2  0  0  0  0
 22 21  1  0  0  0  0
 26 19  1  0  0  0  0
 26 15  1  0  0  0  0
 29 30  1  0  0  0  0
 29 40  1  0  0  0  0
 30 37  1  6  0  0  0
 30 31  1  0  0  0  0
 31 38  1  1  0  0  0
 31 32  1  0  0  0  0
 32 39  1  1  0  0  0
 33 32  1  0  0  0  0
 33 34  1  1  0  0  0
 34 41  1  0  0  0  0
 35 36  1  0  0  0  0
 35 37  1  0  0  0  0
 40 33  1  0  0  0  0
 42 35  2  0  0  0  0
 43 39  1  6  0  0  0
 43 44  1  0  0  0  0
 44 51  1  1  0  0  0
 44 45  1  0  0  0  0
 45 52  1  6  0  0  0
 45 46  1  0  0  0  0
 46 53  1  6  0  0  0
 47 48  1  6  0  0  0
 47 46  1  0  0  0  0
 49 56  2  0  0  0  0
 49 51  1  0  0  0  0
 50 49  1  0  0  0  0
 54 43  1  0  0  0  0
 54 47  1  0  0  0  0
 55 48  1  0  0  0  0
 57 68  1  0  0  0  0
 58 65  1  6  0  0  0
 58 57  1  0  0  0  0
 59 66  1  6  0  0  0
 59 58  1  0  0  0  0
 59 60  1  0  0  0  0
 60 67  1  6  0  0  0
 60 61  1  0  0  0  0
 61 68  1  0  0  0  0
 61 62  1  1  0  0  0
 62 69  1  0  0  0  0
 63 64  1  0  0  0  0
 65 63  1  0  0  0  0
 70 63  2  0  0  0  0
 71 67  1  6  0  0  0
 72 73  1  0  0  0  0
 72 71  1  0  0  0  0
 72 79  1  1  0  0  0
 73 80  1  6  0  0  0
 74 81  1  1  0  0  0
 74 73  1  0  0  0  0
 74 75  1  0  0  0  0
 75 76  1  6  0  0  0
 76 83  1  0  0  0  0
 77 79  1  0  0  0  0
 77 78  1  0  0  0  0
 82 75  1  0  0  0  0
 82 71  1  0  0  0  0
 84 77  2  0  0  0  0
 85 86  1  0  0  0  0
 86 93  1  1  0  0  0
 86 87  1  0  0  0  0
 87 94  1  6  0  0  0
 88 87  1  0  0  0  0
 88 95  1  1  0  0  0
 89 90  1  6  0  0  0
 89 88  1  0  0  0  0
 90 97  1  0  0  0  0
 91 93  1  0  0  0  0
 91 98  2  0  0  0  0
 92 91  1  0  0  0  0
 96 85  1  0  0  0  0
 96 89  1  0  0  0  0
M  END
$$$$
