/Users/chinazoemeh/HopeMScP/data/ligands/ache/AChE_26_7RB6/AChE_26_7RB6.pdb
 OpenBabel07172512173D

 30 25  0  0  0  0  0  0  0  0999 V2000
   30.2460  -36.3620   -7.9790 C   0  0  0  0  0  0  0  0  0  0  0  0
   30.3640  -36.8010   -6.6450 O   0  0  0  0  0  0  0  0  0  0  0  0
   30.9580  -37.3390   -8.9090 C   0  0  0  0  0  0  0  0  0  0  0  0
   31.4260  -36.6310  -10.0340 O   0  0  0  0  0  0  0  0  0  0  0  0
   29.9720  -38.4020   -9.3780 C   0  0  0  0  0  0  0  0  0  0  0  0
   30.6440  -39.6230   -9.5810 O   0  0  0  0  0  0  0  0  0  0  0  0
   28.2250  -17.4390   -3.3870 C   0  0  0  0  0  0  0  0  0  0  0  0
   28.7710  -16.1430   -3.2660 O   0  0  0  0  0  0  0  0  0  0  0  0
   28.1150  -17.8200   -4.8610 C   0  0  0  0  0  0  0  0  0  0  0  0
   26.8160  -17.5250   -5.3260 O   0  0  0  0  0  0  0  0  0  0  0  0
   28.3950  -19.3110   -5.0340 C   0  0  0  0  0  0  0  0  0  0  0  0
   28.3270  -19.6620   -6.4000 O   0  0  0  0  0  0  0  0  0  0  0  0
   46.7560   -7.8220   11.2730 C   0  0  0  0  0  0  0  0  0  0  0  0
   47.2090   -8.1370    9.9760 O   0  0  0  0  0  0  0  0  0  0  0  0
   47.8630   -8.0950   12.2830 C   0  0  0  0  0  0  0  0  0  0  0  0
   47.3270   -8.8260   13.3630 O   0  0  0  0  0  0  0  0  0  0  0  0
   48.4050   -6.7740   12.8110 C   0  0  0  0  0  0  0  0  0  0  0  0
   49.8030   -6.8720   12.9560 O   0  0  0  0  0  0  0  0  0  0  0  0
   40.7990  -32.8950   36.8150 C   0  0  0  0  0  0  0  0  0  0  0  0
   41.1320  -32.2740   35.5940 O   0  0  0  0  0  0  0  0  0  0  0  0
   39.4880  -33.6550   36.6550 C   0  0  0  0  0  0  0  0  0  0  0  0
   39.7020  -35.0210   36.9380 O   0  0  0  0  0  0  0  0  0  0  0  0
   38.4450  -33.0830   37.6090 C   0  0  0  0  0  0  0  0  0  0  0  0
   37.2050  -33.7210   37.3920 O   0  0  0  0  0  0  0  0  0  0  0  0
   29.6700  -15.0600    7.6710 C   0  0  0  0  0  0  0  0  0  0  0  0
   28.8540  -16.1620    7.3380 O   0  0  0  0  0  0  0  0  0  0  0  0
   29.6050  -14.8070    9.1750 C   0  0  0  0  0  0  0  0  0  0  0  0
   28.6980  -13.7570    9.4410 O   0  0  0  0  0  0  0  0  0  0  0  0
   30.9870  -14.4330    9.7060 C   0  0  0  0  0  0  0  0  0  0  0  0
   31.9750  -15.2560    9.1260 O   0  0  0  0  0  0  0  0  0  0  0  0
  1  2  1  0  0  0  0
  3  1  1  0  0  0  0
  4  3  1  0  0  0  0
  5  3  1  0  0  0  0
  6  5  1  0  0  0  0
  7  8  1  0  0  0  0
  9  7  1  0  0  0  0
 10  9  1  0  0  0  0
 11  9  1  0  0  0  0
 12 11  1  0  0  0  0
 13 15  1  0  0  0  0
 14 13  1  0  0  0  0
 15 17  1  0  0  0  0
 15 16  1  0  0  0  0
 17 18  1  0  0  0  0
 20 19  1  0  0  0  0
 21 19  1  0  0  0  0
 21 22  1  0  0  0  0
 21 23  1  0  0  0  0
 24 23  1  0  0  0  0
 25 27  1  0  0  0  0
 26 25  1  0  0  0  0
 27 28  1  0  0  0  0
 27 29  1  0  0  0  0
 30 29  1  0  0  0  0
M  END
$$$$
