/Users/chinazoemeh/HopeMScP/data/ligands/ache/AChE_54_6WVQ/AChE_54_6WVQ.pdb
 OpenBabel07172512173D

 98100  0  0  1  0  0  0  0  0999 V2000
   58.9290    4.7800   11.5650 C   0  0  0  0  0  0  0  0  0  0  0  0
   58.3810    3.5650   10.8160 C   0  0  1  0  0  0  0  0  0  0  0  0
   56.8820    3.4110   11.0740 C   0  0  2  0  0  0  0  0  0  0  0  0
   56.5960    3.3780   12.5700 C   0  0  1  0  0  0  0  0  0  0  0  0
   57.2210    4.6100   13.2360 C   0  0  1  0  0  0  0  0  0  0  0  0
   57.1020    4.6170   14.7440 C   0  0  0  0  0  0  0  0  0  0  0  0
   59.5040    2.8910    8.7330 C   0  0  0  0  0  0  0  0  0  0  0  0
   60.2060    1.8460    9.5550 C   0  0  0  0  0  0  0  0  0  0  0  0
   58.6440    3.6790    9.3900 N   0  0  0  0  0  0  0  0  0  0  0  0
   56.4010    2.2240   10.4550 O   0  0  0  0  0  0  0  0  0  0  0  0
   55.1850    3.3300   12.7770 O   0  0  0  0  0  0  0  0  0  0  0  0
   58.6270    4.6660   12.9420 O   0  0  0  0  0  0  0  0  0  0  0  0
   57.2780    3.3110   15.2760 O   0  0  0  0  0  0  0  0  0  0  0  0
   59.7040    3.0130    7.5270 O   0  0  0  0  0  0  0  0  0  0  0  0
   54.7710    2.2870   13.7090 C   0  0  1  0  0  0  0  0  0  0  0  0
   53.3900    2.6550   14.2740 C   0  0  1  0  0  0  0  0  0  0  0  0
   52.9210    1.5830   15.2620 C   0  0  2  0  0  0  0  0  0  0  0  0
   52.9630    0.2050   14.6130 C   0  0  1  0  0  0  0  0  0  0  0  0
   54.3530   -0.0720   14.0400 C   0  0  1  0  0  0  0  0  0  0  0  0
   54.4340   -1.3830   13.2900 C   0  0  0  0  0  0  0  0  0  0  0  0
   52.9740    5.0760   14.3150 C   0  0  0  0  0  0  0  0  0  0  0  0
   53.0860    6.3400   15.1170 C   0  0  0  0  0  0  0  0  0  0  0  0
   53.4190    3.9630   14.9090 N   0  0  0  0  0  0  0  0  0  0  0  0
   51.5950    1.8710   15.6940 O   0  0  0  0  0  0  0  0  0  0  0  0
   52.6140   -0.8000   15.5590 O   0  0  0  0  0  0  0  0  0  0  0  0
   54.7160    0.9640   13.1100 O   0  0  0  0  0  0  0  0  0  0  0  0
   54.5930   -1.1850   11.8910 O   0  0  0  0  0  0  0  0  0  0  0  0
   52.5020    5.0640   13.1830 O   0  0  0  0  0  0  0  0  0  0  0  0
  128.5120   58.6370   21.4000 C   0  0  0  0  0  0  0  0  0  0  0  0
  129.5400   59.0520   20.3400 C   0  0  1  0  0  0  0  0  0  0  0  0
  129.8840   57.8670   19.4370 C   0  0  2  0  0  0  0  0  0  0  0  0
  130.3170   56.6680   20.2720 C   0  0  1  0  0  0  0  0  0  0  0  0
  129.2350   56.3560   21.3070 C   0  0  1  0  0  0  0  0  0  0  0  0
  129.5960   55.2250   22.2460 C   0  0  0  0  0  0  0  0  0  0  0  0
  129.4400   61.4430   19.7540 C   0  0  0  0  0  0  0  0  0  0  0  0
  130.4250   61.6710   20.8670 C   0  0  0  0  0  0  0  0  0  0  0  0
  129.0570   60.1740   19.5510 N   0  0  0  0  0  0  0  0  0  0  0  0
  130.9240   58.2440   18.5440 O   0  0  0  0  0  0  0  0  0  0  0  0
  130.5200   55.5410   19.4250 O   0  0  0  0  0  0  0  0  0  0  0  0
  128.9990   57.5120   22.1240 O   0  0  0  0  0  0  0  0  0  0  0  0
  130.9990   55.1430   22.4480 O   0  0  0  0  0  0  0  0  0  0  0  0
  129.0110   62.3680   19.0690 O   0  0  0  0  0  0  0  0  0  0  0  0
  131.8880   55.0620   19.4000 C   0  0  1  0  0  0  0  0  0  0  0  0
  131.8670   53.7080   18.6750 C   0  0  1  0  0  0  0  0  0  0  0  0
  133.2840   53.1480   18.5190 C   0  0  2  0  0  0  0  0  0  0  0  0
  134.2060   54.1830   17.8850 C   0  0  1  0  0  0  0  0  0  0  0  0
  134.1470   55.4830   18.6830 C   0  0  1  0  0  0  0  0  0  0  0  0
  134.9780   56.5930   18.0800 C   0  0  0  0  0  0  0  0  0  0  0  0
  129.8130   52.3930   18.9220 C   0  0  0  0  0  0  0  0  0  0  0  0
  129.0520   51.4210   19.7790 C   0  0  0  0  0  0  0  0  0  0  0  0
  131.0140   52.7650   19.3800 N   0  0  0  0  0  0  0  0  0  0  0  0
  133.2380   51.9860   17.6960 O   0  0  0  0  0  0  0  0  0  0  0  0
  135.5450   53.7000   17.8300 O   0  0  0  0  0  0  0  0  0  0  0  0
  132.7910   55.9560   18.7290 O   0  0  0  0  0  0  0  0  0  0  0  0
  134.6130   57.8580   18.6150 O   0  0  0  0  0  0  0  0  0  0  0  0
  129.3610   52.8200   17.8600 O   0  0  0  0  0  0  0  0  0  0  0  0
   26.4450   24.3190   47.3600 C   0  0  0  0  0  0  0  0  0  0  0  0
   26.9720   24.5650   48.8140 C   0  0  1  0  0  0  0  0  0  0  0  0
   26.2970   25.7930   49.4400 C   0  0  2  0  0  0  0  0  0  0  0  0
   26.4300   26.9990   48.5240 C   0  0  1  0  0  0  0  0  0  0  0  0
   25.8050   26.6650   47.1760 C   0  0  1  0  0  0  0  0  0  0  0  0
   25.8890   27.7990   46.1830 C   0  0  0  0  0  0  0  0  0  0  0  0
   27.2840   23.2480   50.8900 C   0  0  0  0  0  0  0  0  0  0  0  0
   26.9640   21.9590   51.5930 C   0  0  0  0  0  0  0  0  0  0  0  0
   26.7760   23.3880   49.6540 N   0  0  0  0  0  0  0  0  0  0  0  0
   26.8730   26.0940   50.7080 O   0  0  0  0  0  0  0  0  0  0  0  0
   25.7930   28.1320   49.1040 O   0  0  0  0  0  0  0  0  0  0  0  0
   26.5070   25.5560   46.5950 O   0  0  0  0  0  0  0  0  0  0  0  0
   25.6920   27.3270   44.8570 O   0  0  0  0  0  0  0  0  0  0  0  0
   27.9660   24.1220   51.4200 O   0  0  0  0  0  0  0  0  0  0  0  0
   81.6630   18.5310   24.6160 C   0  0  0  0  0  0  0  0  0  0  0  0
   82.8570   18.3030   25.5380 C   0  0  1  0  0  0  0  0  0  0  0  0
   82.4920   17.3070   26.6350 C   0  0  2  0  0  0  0  0  0  0  0  0
   81.2470   17.7760   27.3820 C   0  0  1  0  0  0  0  0  0  0  0  0
   80.1020   18.1060   26.4190 C   0  0  1  0  0  0  0  0  0  0  0  0
   78.9400   18.7840   27.1110 C   0  0  0  0  0  0  0  0  0  0  0  0
   84.1400   16.7560   24.0760 C   0  0  0  0  0  0  0  0  0  0  0  0
   85.4640   16.5200   23.4070 C   0  0  0  0  0  0  0  0  0  0  0  0
   84.0460   17.8760   24.8080 N   0  0  0  0  0  0  0  0  0  0  0  0
   83.5800   17.1760   27.5430 O   0  0  0  0  0  0  0  0  0  0  0  0
   80.8140   16.7580   28.2780 O   0  0  0  0  0  0  0  0  0  0  0  0
   80.5430   19.0060   25.3870 O   0  0  0  0  0  0  0  0  0  0  0  0
   77.8150   18.9340   26.2560 O   0  0  0  0  0  0  0  0  0  0  0  0
   83.2050   15.9670   23.9570 O   0  0  0  0  0  0  0  0  0  0  0  0
  116.5890   61.1080   45.6670 C   0  0  0  0  0  0  0  0  0  0  0  0
  116.6830   62.6330   45.9490 C   0  0  1  0  0  0  0  0  0  0  0  0
  118.0090   62.9960   46.6460 C   0  0  2  0  0  0  0  0  0  0  0  0
  118.3100   62.0640   47.8130 C   0  0  1  0  0  0  0  0  0  0  0  0
  118.2480   60.6220   47.3310 C   0  0  1  0  0  0  0  0  0  0  0  0
  118.5560   59.5990   48.4040 C   0  0  0  0  0  0  0  0  0  0  0  0
  116.1240   64.6420   44.6150 C   0  0  0  0  0  0  0  0  0  0  0  0
  116.0540   65.2160   43.2290 C   0  0  0  0  0  0  0  0  0  0  0  0
  116.5480   63.3740   44.7020 N   0  0  0  0  0  0  0  0  0  0  0  0
  117.9380   64.3380   47.1210 O   0  0  0  0  0  0  0  0  0  0  0  0
  119.6050   62.3400   48.3370 O   0  0  0  0  0  0  0  0  0  0  0  0
  116.9190   60.3620   46.8620 O   0  0  0  0  0  0  0  0  0  0  0  0
  119.2670   58.4930   47.8610 O   0  0  0  0  0  0  0  0  0  0  0  0
  115.8120   65.2960   45.6060 O   0  0  0  0  0  0  0  0  0  0  0  0
  1 12  1  0  0  0  0
  2  9  1  6  0  0  0
  2  3  1  0  0  0  0
  2  1  1  0  0  0  0
  3 10  1  6  0  0  0
  3  4  1  0  0  0  0
  4 11  1  6  0  0  0
  4  5  1  0  0  0  0
  5  6  1  1  0  0  0
  6 13  1  0  0  0  0
  7  9  1  0  0  0  0
  7  8  1  0  0  0  0
 12  5  1  0  0  0  0
 14  7  2  0  0  0  0
 15 11  1  6  0  0  0
 15 16  1  0  0  0  0
 16 23  1  1  0  0  0
 16 17  1  0  0  0  0
 17 24  1  6  0  0  0
 18 17  1  0  0  0  0
 18 25  1  1  0  0  0
 19 20  1  6  0  0  0
 19 18  1  0  0  0  0
 21 23  1  0  0  0  0
 21 22  1  0  0  0  0
 26 15  1  0  0  0  0
 26 19  1  0  0  0  0
 27 20  1  0  0  0  0
 28 21  2  0  0  0  0
 29 40  1  0  0  0  0
 30 37  1  6  0  0  0
 30 29  1  0  0  0  0
 31 38  1  6  0  0  0
 31 32  1  0  0  0  0
 31 30  1  0  0  0  0
 32 39  1  6  0  0  0
 32 33  1  0  0  0  0
 33 40  1  0  0  0  0
 33 34  1  1  0  0  0
 34 41  1  0  0  0  0
 35 36  1  0  0  0  0
 37 35  1  0  0  0  0
 42 35  2  0  0  0  0
 43 39  1  6  0  0  0
 44 51  1  1  0  0  0
 44 43  1  0  0  0  0
 45 52  1  6  0  0  0
 45 44  1  0  0  0  0
 46 53  1  1  0  0  0
 46 45  1  0  0  0  0
 46 47  1  0  0  0  0
 47 48  1  6  0  0  0
 47 54  1  0  0  0  0
 48 55  1  0  0  0  0
 49 51  1  0  0  0  0
 49 50  1  0  0  0  0
 54 43  1  0  0  0  0
 56 49  2  0  0  0  0
 57 58  1  0  0  0  0
 58 59  1  0  0  0  0
 58 65  1  1  0  0  0
 59 66  1  1  0  0  0
 60 67  1  1  0  0  0
 60 59  1  0  0  0  0
 61 62  1  6  0  0  0
 61 60  1  0  0  0  0
 63 70  2  0  0  0  0
 63 64  1  0  0  0  0
 65 63  1  0  0  0  0
 68 61  1  0  0  0  0
 68 57  1  0  0  0  0
 69 62  1  0  0  0  0
 71 82  1  0  0  0  0
 71 72  1  0  0  0  0
 72 79  1  6  0  0  0
 72 73  1  0  0  0  0
 73 74  1  0  0  0  0
 73 80  1  1  0  0  0
 74 81  1  1  0  0  0
 75 76  1  1  0  0  0
 75 74  1  0  0  0  0
 77 79  1  0  0  0  0
 78 77  1  0  0  0  0
 82 75  1  0  0  0  0
 83 76  1  0  0  0  0
 84 77  2  0  0  0  0
 85 86  1  0  0  0  0
 85 96  1  0  0  0  0
 86 93  1  6  0  0  0
 86 87  1  0  0  0  0
 87 94  1  1  0  0  0
 87 88  1  0  0  0  0
 88 95  1  6  0  0  0
 89 88  1  0  0  0  0
 89 90  1  1  0  0  0
 91 93  1  0  0  0  0
 91 98  2  0  0  0  0
 92 91  1  0  0  0  0
 96 89  1  0  0  0  0
 97 90  1  0  0  0  0
M  END
$$$$
