/Users/chinazoemeh/HopeMScP/data/ligands/ache/AChE_37_6CQV/AChE_37_6CQV.pdb
 OpenBabel07172512173D

 98101  0  0  1  0  0  0  0  0999 V2000
  -59.6980   -4.3490  334.7300 C   0  0  0  0  0  0  0  0  0  0  0  0
  -58.9610   -3.3940  333.7960 C   0  0  1  0  0  0  0  0  0  0  0  0
  -57.4660   -3.3860  334.0760 C   0  0  2  0  0  0  0  0  0  0  0  0
  -57.2210   -3.1370  335.5560 C   0  0  1  0  0  0  0  0  0  0  0  0
  -57.9900   -4.1540  336.3890 C   0  0  1  0  0  0  0  0  0  0  0  0
  -57.7700   -3.9130  337.8780 C   0  0  0  0  0  0  0  0  0  0  0  0
  -60.3130   -3.3930  331.7810 C   0  0  0  0  0  0  0  0  0  0  0  0
  -60.8330   -2.0280  332.1250 C   0  0  0  0  0  0  0  0  0  0  0  0
  -59.2040   -3.7640  332.4150 N   0  0  0  0  0  0  0  0  0  0  0  0
  -56.8380   -2.3560  333.3060 O   0  0  0  0  0  0  0  0  0  0  0  0
  -55.8210   -3.2460  335.8370 O   0  0  0  0  0  0  0  0  0  0  0  0
  -59.3860   -4.0760  336.0970 O   0  0  0  0  0  0  0  0  0  0  0  0
  -58.3400   -2.6520  338.2460 O   0  0  0  0  0  0  0  0  0  0  0  0
  -60.8710   -4.1150  330.9710 O   0  0  0  0  0  0  0  0  0  0  0  0
  -55.4220   -2.1170  336.6350 C   0  0  1  0  0  0  0  0  0  0  0  0
  -54.0560   -2.3900  337.2560 C   0  0  1  0  0  0  0  0  0  0  0  0
  -53.5630   -1.1960  338.0620 C   0  0  2  0  0  0  0  0  0  0  0  0
  -53.6310    0.0630  337.2120 C   0  0  1  0  0  0  0  0  0  0  0  0
  -55.0380    0.2420  336.6580 C   0  0  1  0  0  0  0  0  0  0  0  0
  -55.1250    1.4910  335.7890 C   0  0  0  0  0  0  0  0  0  0  0  0
  -54.0400   -4.7930  337.5930 C   0  0  0  0  0  0  0  0  0  0  0  0
  -54.3810   -5.9100  338.5340 C   0  0  0  0  0  0  0  0  0  0  0  0
  -54.1200   -3.5660  338.1010 N   0  0  0  0  0  0  0  0  0  0  0  0
  -52.2130   -1.4220  338.4790 O   0  0  0  0  0  0  0  0  0  0  0  0
  -53.2810    1.1990  338.0100 O   0  0  0  0  0  0  0  0  0  0  0  0
  -55.4140   -0.9000  335.8860 O   0  0  0  0  0  0  0  0  0  0  0  0
  -56.4890    1.7190  335.4160 O   0  0  0  0  0  0  0  0  0  0  0  0
  -53.7110   -4.9960  336.4360 O   0  0  0  0  0  0  0  0  0  0  0  0
  -25.9960  -24.0620  370.2630 C   0  0  0  0  0  0  0  0  0  0  0  0
  -24.9810  -25.1900  370.4260 C   0  0  1  0  0  0  0  0  0  0  0  0
  -25.5780  -26.3700  371.1800 C   0  0  2  0  0  0  0  0  0  0  0  0
  -26.2020  -25.8880  372.4800 C   0  0  1  0  0  0  0  0  0  0  0  0
  -27.2040  -24.7770  372.1960 C   0  0  1  0  0  0  0  0  0  0  0  0
  -27.8310  -24.2680  373.4890 C   0  0  0  0  0  0  0  0  0  0  0  0
  -23.5480  -24.9610  368.4810 C   0  0  0  0  0  0  0  0  0  0  0  0
  -22.4650  -24.3810  369.3420 C   0  0  0  0  0  0  0  0  0  0  0  0
  -24.5050  -25.6220  369.1260 N   0  0  0  0  0  0  0  0  0  0  0  0
  -24.5510  -27.3260  371.4650 O   0  0  0  0  0  0  0  0  0  0  0  0
  -26.8660  -26.9800  373.1260 O   0  0  0  0  0  0  0  0  0  0  0  0
  -26.5630  -23.6940  371.5220 O   0  0  0  0  0  0  0  0  0  0  0  0
  -26.8320  -23.6110  374.2770 O   0  0  0  0  0  0  0  0  0  0  0  0
  -23.5500  -24.8350  367.2680 O   0  0  0  0  0  0  0  0  0  0  0  0
  -26.3280  -27.1260  374.4530 C   0  0  1  0  0  0  0  0  0  0  0  0
  -27.0230  -28.2870  375.1580 C   0  0  1  0  0  0  0  0  0  0  0  0
  -26.4440  -28.5210  376.5460 C   0  0  2  0  0  0  0  0  0  0  0  0
  -24.9320  -28.6480  376.4590 C   0  0  1  0  0  0  0  0  0  0  0  0
  -24.3470  -27.4320  375.7530 C   0  0  1  0  0  0  0  0  0  0  0  0
  -22.8310  -27.5440  375.6410 C   0  0  0  0  0  0  0  0  0  0  0  0
  -29.2650  -28.2620  374.2290 C   0  0  0  0  0  0  0  0  0  0  0  0
  -28.9360  -29.4640  373.3950 C   0  0  0  0  0  0  0  0  0  0  0  0
  -28.4470  -28.0300  375.2530 N   0  0  0  0  0  0  0  0  0  0  0  0
  -26.9960  -29.7200  377.1000 O   0  0  0  0  0  0  0  0  0  0  0  0
  -24.3810  -28.7490  377.7770 O   0  0  0  0  0  0  0  0  0  0  0  0
  -24.9100  -27.3010  374.4470 O   0  0  0  0  0  0  0  0  0  0  0  0
  -22.2990  -26.3210  375.1220 O   0  0  0  0  0  0  0  0  0  0  0  0
  -30.2200  -27.5430  373.9860 O   0  0  0  0  0  0  0  0  0  0  0  0
  -23.2770  -58.6490  345.4600 C   0  0  0  0  0  0  0  0  0  0  0  0
  -23.9260  -59.0120  344.1280 C   0  0  1  0  0  0  0  0  0  0  0  0
  -24.1780  -57.7760  343.2770 C   0  0  2  0  0  0  0  0  0  0  0  0
  -24.9380  -56.7380  344.0890 C   0  0  1  0  0  0  0  0  0  0  0  0
  -24.1930  -56.4430  345.3840 C   0  0  1  0  0  0  0  0  0  0  0  0
  -24.9450  -55.4150  346.2210 C   0  0  0  0  0  0  0  0  0  0  0  0
  -23.1070  -61.2510  343.6750 C   0  0  0  0  0  0  0  0  0  0  0  0
  -24.4480  -61.8190  344.0350 C   0  0  0  0  0  0  0  0  0  0  0  0
  -23.0870  -59.9490  343.4050 N   0  0  0  0  0  0  0  0  0  0  0  0
  -24.9430  -58.1360  342.1220 O   0  0  0  0  0  0  0  0  0  0  0  0
  -25.0690  -55.5340  343.3260 O   0  0  0  0  0  0  0  0  0  0  0  0
  -24.0280  -57.6420  346.1420 O   0  0  0  0  0  0  0  0  0  0  0  0
  -26.1850  -55.9770  346.6650 O   0  0  0  0  0  0  0  0  0  0  0  0
  -22.1000  -61.9380  343.6320 O   0  0  0  0  0  0  0  0  0  0  0  0
  -26.4490  -55.1250  343.3450 C   0  0  1  0  0  0  0  0  0  0  0  0
  -26.5830  -53.7550  342.6860 C   0  0  1  0  0  0  0  0  0  0  0  0
  -28.0360  -53.3060  342.6290 C   0  0  2  0  0  0  0  0  0  0  0  0
  -28.8880  -54.3960  341.9990 C   0  0  1  0  0  0  0  0  0  0  0  0
  -28.6860  -55.7100  342.7420 C   0  0  1  0  0  0  0  0  0  0  0  0
  -29.5190  -56.8220  342.1150 C   0  0  0  0  0  0  0  0  0  0  0  0
  -24.4810  -52.6580  343.2030 C   0  0  0  0  0  0  0  0  0  0  0  0
  -23.7590  -51.7350  344.1400 C   0  0  0  0  0  0  0  0  0  0  0  0
  -25.7900  -52.7780  343.4070 N   0  0  0  0  0  0  0  0  0  0  0  0
  -28.1380  -52.1070  341.8530 O   0  0  0  0  0  0  0  0  0  0  0  0
  -30.2680  -54.0200  342.0560 O   0  0  0  0  0  0  0  0  0  0  0  0
  -27.3070  -56.0820  342.7210 O   0  0  0  0  0  0  0  0  0  0  0  0
  -29.4290  -57.9990  342.9260 O   0  0  0  0  0  0  0  0  0  0  0  0
  -23.9050  -53.2610  342.3130 O   0  0  0  0  0  0  0  0  0  0  0  0
  -11.3670  -61.0090  370.1990 C   0  0  0  0  0  0  0  0  0  0  0  0
  -12.3180  -59.8240  370.3440 C   0  0  1  0  0  0  0  0  0  0  0  0
  -13.4180  -60.1160  371.3550 C   0  0  2  0  0  0  0  0  0  0  0  0
  -14.0970  -61.4320  371.0120 C   0  0  1  0  0  0  0  0  0  0  0  0
  -13.0590  -62.5410  370.9050 C   0  0  1  0  0  0  0  0  0  0  0  0
  -13.7170  -63.8680  370.5450 C   0  0  0  0  0  0  0  0  0  0  0  0
  -10.9290  -57.8960  369.8530 C   0  0  0  0  0  0  0  0  0  0  0  0
   -9.9060  -56.9560  370.4180 C   0  0  0  0  0  0  0  0  0  0  0  0
  -11.5810  -58.6400  370.7420 N   0  0  0  0  0  0  0  0  0  0  0  0
  -14.3820  -59.0580  371.3340 O   0  0  0  0  0  0  0  0  0  0  0  0
  -15.0480  -61.7610  372.0310 O   0  0  0  0  0  0  0  0  0  0  0  0
  -12.0840  -62.2120  369.9150 O   0  0  0  0  0  0  0  0  0  0  0  0
  -12.7450  -64.9170  370.6100 O   0  0  0  0  0  0  0  0  0  0  0  0
  -11.1490  -57.9730  368.6560 O   0  0  0  0  0  0  0  0  0  0  0  0
  1 12  1  0  0  0  0
  2  9  1  6  0  0  0
  2  3  1  0  0  0  0
  2  1  1  0  0  0  0
  3 10  1  6  0  0  0
  3  4  1  0  0  0  0
  4 11  1  6  0  0  0
  4  5  1  0  0  0  0
  5  6  1  1  0  0  0
  6 13  1  0  0  0  0
  7  8  1  0  0  0  0
  7  9  1  0  0  0  0
 12  5  1  0  0  0  0
 14  7  2  0  0  0  0
 15 11  1  6  0  0  0
 15 16  1  0  0  0  0
 16 17  1  0  0  0  0
 16 23  1  1  0  0  0
 17 24  1  6  0  0  0
 18 25  1  1  0  0  0
 18 17  1  0  0  0  0
 19 20  1  6  0  0  0
 19 18  1  0  0  0  0
 21 23  1  0  0  0  0
 21 22  1  0  0  0  0
 26 15  1  0  0  0  0
 26 19  1  0  0  0  0
 27 20  1  0  0  0  0
 28 21  2  0  0  0  0
 29 30  1  0  0  0  0
 29 40  1  0  0  0  0
 30 37  1  6  0  0  0
 30 31  1  0  0  0  0
 31 38  1  1  0  0  0
 31 32  1  0  0  0  0
 32 39  1  6  0  0  0
 33 32  1  0  0  0  0
 33 34  1  1  0  0  0
 34 41  1  0  0  0  0
 35 37  1  0  0  0  0
 35 36  1  0  0  0  0
 40 33  1  0  0  0  0
 42 35  2  0  0  0  0
 43 39  1  6  0  0  0
 43 44  1  0  0  0  0
 44 51  1  1  0  0  0
 44 45  1  0  0  0  0
 45 52  1  6  0  0  0
 46 45  1  0  0  0  0
 46 53  1  1  0  0  0
 47 48  1  6  0  0  0
 47 46  1  0  0  0  0
 49 51  1  0  0  0  0
 50 49  1  0  0  0  0
 54 43  1  0  0  0  0
 54 47  1  0  0  0  0
 55 48  1  0  0  0  0
 56 49  2  0  0  0  0
 57 68  1  0  0  0  0
 58 65  1  6  0  0  0
 58 57  1  0  0  0  0
 59 66  1  6  0  0  0
 59 60  1  0  0  0  0
 59 58  1  0  0  0  0
 60 67  1  6  0  0  0
 60 61  1  0  0  0  0
 61 68  1  0  0  0  0
 61 62  1  1  0  0  0
 62 69  1  0  0  0  0
 63 64  1  0  0  0  0
 65 63  1  0  0  0  0
 70 63  2  0  0  0  0
 71 67  1  6  0  0  0
 72 71  1  0  0  0  0
 72 79  1  1  0  0  0
 73 80  1  6  0  0  0
 73 72  1  0  0  0  0
 74 81  1  1  0  0  0
 74 73  1  0  0  0  0
 74 75  1  0  0  0  0
 75 76  1  6  0  0  0
 76 83  1  0  0  0  0
 77 79  1  0  0  0  0
 77 78  1  0  0  0  0
 82 75  1  0  0  0  0
 82 71  1  0  0  0  0
 84 77  2  0  0  0  0
 85 86  1  0  0  0  0
 86 93  1  1  0  0  0
 86 87  1  0  0  0  0
 87 94  1  6  0  0  0
 88 87  1  0  0  0  0
 88 95  1  1  0  0  0
 89 90  1  6  0  0  0
 89 88  1  0  0  0  0
 90 97  1  0  0  0  0
 91 92  1  0  0  0  0
 91 93  1  0  0  0  0
 96 85  1  0  0  0  0
 96 89  1  0  0  0  0
 98 91  2  0  0  0  0
M  END
$$$$
