/Users/chinazoemeh/HopeMScP/data/ligands/ache/AChE_66_6CQY/AChE_66_6CQY.pdb
 OpenBabel07172512173D

 84 86  0  0  1  0  0  0  0  0999 V2000
   45.9740   -4.6850   11.8020 C   0  0  0  0  0  0  0  0  0  0  0  0
   46.7470   -3.6370   11.0070 C   0  0  1  0  0  0  0  0  0  0  0  0
   48.2290   -3.6570   11.3540 C   0  0  2  0  0  0  0  0  0  0  0  0
   48.4060   -3.5650   12.8610 C   0  0  1  0  0  0  0  0  0  0  0  0
   47.6060   -4.6630   13.5480 C   0  0  1  0  0  0  0  0  0  0  0  0
   47.7570   -4.5790   15.0620 C   0  0  0  0  0  0  0  0  0  0  0  0
   45.4850   -3.4310    8.9450 C   0  0  0  0  0  0  0  0  0  0  0  0
   44.9590   -2.0960    9.3810 C   0  0  0  0  0  0  0  0  0  0  0  0
   46.5690   -3.8610    9.5850 N   0  0  0  0  0  0  0  0  0  0  0  0
   48.8860   -2.5520   10.7240 O   0  0  0  0  0  0  0  0  0  0  0  0
   49.7920   -3.7020   13.1920 O   0  0  0  0  0  0  0  0  0  0  0  0
   46.2240   -4.5560   13.2030 O   0  0  0  0  0  0  0  0  0  0  0  0
   47.1520   -3.3710   15.5360 O   0  0  0  0  0  0  0  0  0  0  0  0
   44.9530   -4.0810    8.0600 O   0  0  0  0  0  0  0  0  0  0  0  0
   50.1520   -2.6590   14.1160 C   0  0  1  0  0  0  0  0  0  0  0  0
   51.5850   -2.8750   14.5940 C   0  0  1  0  0  0  0  0  0  0  0  0
   52.0320   -1.7600   15.5290 C   0  0  2  0  0  0  0  0  0  0  0  0
   51.7790   -0.4090   14.8780 C   0  0  1  0  0  0  0  0  0  0  0  0
   50.3200   -0.3000   14.4560 C   0  0  1  0  0  0  0  0  0  0  0  0
   50.0470    1.0420   13.7870 C   0  0  0  0  0  0  0  0  0  0  0  0
   51.8460   -5.2870   14.5780 C   0  0  0  0  0  0  0  0  0  0  0  0
   51.7000   -6.5510   15.3710 C   0  0  0  0  0  0  0  0  0  0  0  0
   51.6980   -4.1570   15.2630 N   0  0  0  0  0  0  0  0  0  0  0  0
   53.4280   -1.9020   15.8120 O   0  0  0  0  0  0  0  0  0  0  0  0
   52.0900    0.6360   15.8050 O   0  0  0  0  0  0  0  0  0  0  0  0
   49.9870   -1.3560   13.5540 O   0  0  0  0  0  0  0  0  0  0  0  0
   50.7510    1.1060   12.5420 O   0  0  0  0  0  0  0  0  0  0  0  0
   52.0850   -5.2950   13.3810 O   0  0  0  0  0  0  0  0  0  0  0  0
  -23.2200  -58.4470   21.6820 C   0  0  0  0  0  0  0  0  0  0  0  0
  -23.9530  -58.7960   20.3910 C   0  0  1  0  0  0  0  0  0  0  0  0
  -24.2010  -57.5590   19.5400 C   0  0  2  0  0  0  0  0  0  0  0  0
  -24.8740  -56.4840   20.3780 C   0  0  1  0  0  0  0  0  0  0  0  0
  -24.0510  -56.2080   21.6290 C   0  0  1  0  0  0  0  0  0  0  0  0
  -24.7170  -55.1430   22.4940 C   0  0  0  0  0  0  0  0  0  0  0  0
  -23.2500  -61.0710   19.9200 C   0  0  0  0  0  0  0  0  0  0  0  0
  -24.5980  -61.5860   20.3300 C   0  0  0  0  0  0  0  0  0  0  0  0
  -23.1920  -59.7730   19.6350 N   0  0  0  0  0  0  0  0  0  0  0  0
  -25.0400  -57.8980   18.4300 O   0  0  0  0  0  0  0  0  0  0  0  0
  -24.9960  -55.2820   19.6090 O   0  0  0  0  0  0  0  0  0  0  0  0
  -23.8940  -57.4060   22.3910 O   0  0  0  0  0  0  0  0  0  0  0  0
  -25.9500  -55.6530   23.0130 O   0  0  0  0  0  0  0  0  0  0  0  0
  -22.2710  -61.7950   19.8510 O   0  0  0  0  0  0  0  0  0  0  0  0
  -26.3900  -54.9390   19.5070 C   0  0  1  0  0  0  0  0  0  0  0  0
  -26.5420  -53.6690   18.6770 C   0  0  1  0  0  0  0  0  0  0  0  0
  -28.0060  -53.2990   18.4910 C   0  0  2  0  0  0  0  0  0  0  0  0
  -28.7770  -54.4970   17.9600 C   0  0  1  0  0  0  0  0  0  0  0  0
  -28.5640  -55.6990   18.8700 C   0  0  1  0  0  0  0  0  0  0  0  0
  -29.3150  -56.9170   18.3460 C   0  0  0  0  0  0  0  0  0  0  0  0
  -24.5180  -52.4180   19.1550 C   0  0  0  0  0  0  0  0  0  0  0  0
  -24.0280  -52.3920   17.7380 C   0  0  0  0  0  0  0  0  0  0  0  0
  -25.8300  -52.5740   19.3080 N   0  0  0  0  0  0  0  0  0  0  0  0
  -28.1130  -52.2110   17.5660 O   0  0  0  0  0  0  0  0  0  0  0  0
  -30.1720  -54.1820   17.9000 O   0  0  0  0  0  0  0  0  0  0  0  0
  -27.1720  -56.0050   18.9660 O   0  0  0  0  0  0  0  0  0  0  0  0
  -29.2220  -57.9810   19.3000 O   0  0  0  0  0  0  0  0  0  0  0  0
  -23.7630  -52.3030   20.1060 O   0  0  0  0  0  0  0  0  0  0  0  0
   78.5780  -24.6510   47.0470 C   0  0  0  0  0  0  0  0  0  0  0  0
   79.7870  -25.5790   47.1180 C   0  0  1  0  0  0  0  0  0  0  0  0
   79.6260  -26.6220   48.2140 C   0  0  2  0  0  0  0  0  0  0  0  0
   79.2740  -25.9400   49.5270 C   0  0  1  0  0  0  0  0  0  0  0  0
   78.0480  -25.0550   49.3420 C   0  0  1  0  0  0  0  0  0  0  0  0
   77.6870  -24.3480   50.6430 C   0  0  0  0  0  0  0  0  0  0  0  0
   78.9840  -26.7320   45.1350 C   0  0  0  0  0  0  0  0  0  0  0  0
   78.7800  -28.2140   45.2510 C   0  0  0  0  0  0  0  0  0  0  0  0
   79.9960  -26.2330   45.8390 N   0  0  0  0  0  0  0  0  0  0  0  0
   80.8470  -27.3530   48.3660 O   0  0  0  0  0  0  0  0  0  0  0  0
   79.0050  -26.9300   50.5250 O   0  0  0  0  0  0  0  0  0  0  0  0
   78.2910  -24.0810   48.3260 O   0  0  0  0  0  0  0  0  0  0  0  0
   78.7180  -23.4130   50.9800 O   0  0  0  0  0  0  0  0  0  0  0  0
   78.2680  -26.0310   44.4400 O   0  0  0  0  0  0  0  0  0  0  0  0
  -10.8160  -61.8750   45.4800 C   0  0  0  0  0  0  0  0  0  0  0  0
  -11.4160  -62.9260   46.4210 C   0  0  1  0  0  0  0  0  0  0  0  0
  -12.7940  -62.4730   46.9010 C   0  0  2  0  0  0  0  0  0  0  0  0
  -12.7280  -61.0680   47.4880 C   0  0  1  0  0  0  0  0  0  0  0  0
  -12.0640  -60.1110   46.5030 C   0  0  1  0  0  0  0  0  0  0  0  0
  -11.8450  -58.7280   47.0700 C   0  0  0  0  0  0  0  0  0  0  0  0
  -10.6670  -65.2350   46.0040 C   0  0  0  0  0  0  0  0  0  0  0  0
   -9.5800  -64.9710   47.0030 C   0  0  0  0  0  0  0  0  0  0  0  0
  -11.5080  -64.2220   45.7660 N   0  0  0  0  0  0  0  0  0  0  0  0
  -13.2900  -63.3860   47.8730 O   0  0  0  0  0  0  0  0  0  0  0  0
  -14.0420  -60.5990   47.7710 O   0  0  0  0  0  0  0  0  0  0  0  0
  -10.7710  -60.6120   46.1390 O   0  0  0  0  0  0  0  0  0  0  0  0
  -10.9270  -57.9870   46.2780 O   0  0  0  0  0  0  0  0  0  0  0  0
  -10.7780  -66.3180   45.4350 O   0  0  0  0  0  0  0  0  0  0  0  0
  1 12  1  0  0  0  0
  2  9  1  6  0  0  0
  2  3  1  0  0  0  0
  2  1  1  0  0  0  0
  3 10  1  6  0  0  0
  3  4  1  0  0  0  0
  4 11  1  6  0  0  0
  4  5  1  0  0  0  0
  5  6  1  1  0  0  0
  6 13  1  0  0  0  0
  7  8  1  0  0  0  0
  7  9  1  0  0  0  0
 12  5  1  0  0  0  0
 14  7  2  0  0  0  0
 15 11  1  6  0  0  0
 15 16  1  0  0  0  0
 16 23  1  1  0  0  0
 16 17  1  0  0  0  0
 17 24  1  6  0  0  0
 18 17  1  0  0  0  0
 18 25  1  1  0  0  0
 19 20  1  6  0  0  0
 19 18  1  0  0  0  0
 21 23  1  0  0  0  0
 21 22  1  0  0  0  0
 26 15  1  0  0  0  0
 26 19  1  0  0  0  0
 27 20  1  0  0  0  0
 28 21  2  0  0  0  0
 29 40  1  0  0  0  0
 30 37  1  6  0  0  0
 30 29  1  0  0  0  0
 31 38  1  6  0  0  0
 31 32  1  0  0  0  0
 31 30  1  0  0  0  0
 32 39  1  6  0  0  0
 32 33  1  0  0  0  0
 33 40  1  0  0  0  0
 33 34  1  1  0  0  0
 34 41  1  0  0  0  0
 35 36  1  0  0  0  0
 37 35  1  0  0  0  0
 42 35  2  0  0  0  0
 43 39  1  6  0  0  0
 44 51  1  1  0  0  0
 44 43  1  0  0  0  0
 45 52  1  6  0  0  0
 45 44  1  0  0  0  0
 46 53  1  1  0  0  0
 46 45  1  0  0  0  0
 46 47  1  0  0  0  0
 47 48  1  6  0  0  0
 47 54  1  0  0  0  0
 48 55  1  0  0  0  0
 49 51  1  0  0  0  0
 49 56  2  0  0  0  0
 50 49  1  0  0  0  0
 54 43  1  0  0  0  0
 57 58  1  0  0  0  0
 57 68  1  0  0  0  0
 58 65  1  6  0  0  0
 58 59  1  0  0  0  0
 59 66  1  1  0  0  0
 59 60  1  0  0  0  0
 60 67  1  1  0  0  0
 61 60  1  0  0  0  0
 61 62  1  1  0  0  0
 62 69  1  0  0  0  0
 63 64  1  0  0  0  0
 63 65  1  0  0  0  0
 68 61  1  0  0  0  0
 70 63  2  0  0  0  0
 71 82  1  0  0  0  0
 71 72  1  0  0  0  0
 72 79  1  6  0  0  0
 72 73  1  0  0  0  0
 73 74  1  0  0  0  0
 73 80  1  1  0  0  0
 74 81  1  6  0  0  0
 75 76  1  1  0  0  0
 75 74  1  0  0  0  0
 77 78  1  0  0  0  0
 79 77  1  0  0  0  0
 82 75  1  0  0  0  0
 83 76  1  0  0  0  0
 84 77  2  0  0  0  0
M  END
$$$$
