/Users/chinazoemeh/HopeMScP/data/ligands/ache/AChE_44_6NTK/AChE_44_6NTK.pdb
 OpenBabel07172512173D

 70 72  0  0  1  0  0  0  0  0999 V2000
   -6.5030   86.1380  336.1650 C   0  0  0  0  0  0  0  0  0  0  0  0
   -5.9420   87.3450  335.4040 C   0  0  1  0  0  0  0  0  0  0  0  0
   -4.4520   87.5190  335.6970 C   0  0  2  0  0  0  0  0  0  0  0  0
   -4.1980   87.5920  337.1970 C   0  0  1  0  0  0  0  0  0  0  0  0
   -4.8010   86.3580  337.8700 C   0  0  1  0  0  0  0  0  0  0  0  0
   -4.6850   86.3770  339.3770 C   0  0  0  0  0  0  0  0  0  0  0  0
   -6.9190   88.0440  333.2540 C   0  0  0  0  0  0  0  0  0  0  0  0
   -7.5330   89.1870  334.0030 C   0  0  0  0  0  0  0  0  0  0  0  0
   -6.1680   87.2020  333.9740 N   0  0  0  0  0  0  0  0  0  0  0  0
   -3.9760   88.6990  335.0600 O   0  0  0  0  0  0  0  0  0  0  0  0
   -2.7930   87.6460  337.4350 O   0  0  0  0  0  0  0  0  0  0  0  0
   -6.2030   86.2670  337.5670 O   0  0  0  0  0  0  0  0  0  0  0  0
   -4.7740   87.7030  339.8770 O   0  0  0  0  0  0  0  0  0  0  0  0
   -7.0900   87.8910  332.0490 O   0  0  0  0  0  0  0  0  0  0  0  0
   -2.3290   88.7380  338.2710 C   0  0  1  0  0  0  0  0  0  0  0  0
   -0.9720   88.3300  338.8470 C   0  0  1  0  0  0  0  0  0  0  0  0
   -0.4130   89.4340  339.7410 C   0  0  2  0  0  0  0  0  0  0  0  0
   -0.3750   90.7560  338.9890 C   0  0  1  0  0  0  0  0  0  0  0  0
   -1.7580   91.0820  338.4330 C   0  0  1  0  0  0  0  0  0  0  0  0
   -1.7780   92.3430  337.5980 C   0  0  0  0  0  0  0  0  0  0  0  0
   -0.4080   85.9670  339.2010 C   0  0  0  0  0  0  0  0  0  0  0  0
   -0.6130   84.7610  340.0670 C   0  0  0  0  0  0  0  0  0  0  0  0
   -1.0570   87.0750  339.5750 N   0  0  0  0  0  0  0  0  0  0  0  0
    0.8980   89.0770  340.1670 O   0  0  0  0  0  0  0  0  0  0  0  0
    0.0520   91.8020  339.8560 O   0  0  0  0  0  0  0  0  0  0  0  0
   -2.2160   90.0090  337.5930 O   0  0  0  0  0  0  0  0  0  0  0  0
   -2.1470   92.0780  336.2520 O   0  0  0  0  0  0  0  0  0  0  0  0
    0.3070   85.9380  338.2040 O   0  0  0  0  0  0  0  0  0  0  0  0
   29.4330   32.0360  345.9560 C   0  0  0  0  0  0  0  0  0  0  0  0
   28.4380   31.6610  344.8580 C   0  0  1  0  0  0  0  0  0  0  0  0
   28.0600   32.8940  344.0290 C   0  0  2  0  0  0  0  0  0  0  0  0
   27.5940   34.0370  344.9240 C   0  0  1  0  0  0  0  0  0  0  0  0
   28.6290   34.2930  346.0240 C   0  0  1  0  0  0  0  0  0  0  0  0
   28.1730   35.3060  347.0440 C   0  0  0  0  0  0  0  0  0  0  0  0
   28.4770   29.3830  343.9270 C   0  0  0  0  0  0  0  0  0  0  0  0
   27.2740   29.1110  344.7790 C   0  0  0  0  0  0  0  0  0  0  0  0
   28.9850   30.6180  344.0030 N   0  0  0  0  0  0  0  0  0  0  0  0
   27.0370   32.5450  343.1070 O   0  0  0  0  0  0  0  0  0  0  0  0
   27.4070   35.2220  344.1510 O   0  0  0  0  0  0  0  0  0  0  0  0
   28.8960   33.0850  346.7470 O   0  0  0  0  0  0  0  0  0  0  0  0
   26.7800   35.1740  347.2730 O   0  0  0  0  0  0  0  0  0  0  0  0
   28.9650   28.5250  343.1970 O   0  0  0  0  0  0  0  0  0  0  0  0
   26.0540   35.7650  344.2230 C   0  0  1  0  0  0  0  0  0  0  0  0
   26.0010   37.1580  343.5970 C   0  0  1  0  0  0  0  0  0  0  0  0
   24.5920   37.7230  343.7260 C   0  0  2  0  0  0  0  0  0  0  0  0
   23.6060   36.7870  343.0430 C   0  0  1  0  0  0  0  0  0  0  0  0
   23.7300   35.3620  343.5940 C   0  0  1  0  0  0  0  0  0  0  0  0
   22.9170   34.3670  342.7960 C   0  0  0  0  0  0  0  0  0  0  0  0
   27.8110   38.7970  343.4300 C   0  0  0  0  0  0  0  0  0  0  0  0
   28.7450   39.7010  344.1760 C   0  0  0  0  0  0  0  0  0  0  0  0
   26.9730   38.0710  344.1780 N   0  0  0  0  0  0  0  0  0  0  0  0
   24.5340   39.0230  343.1490 O   0  0  0  0  0  0  0  0  0  0  0  0
   22.2760   37.2540  343.2350 O   0  0  0  0  0  0  0  0  0  0  0  0
   25.0940   34.9020  343.5570 O   0  0  0  0  0  0  0  0  0  0  0  0
   23.2350   33.0240  343.1340 O   0  0  0  0  0  0  0  0  0  0  0  0
   27.8200   38.7210  342.2040 O   0  0  0  0  0  0  0  0  0  0  0  0
   26.0450   66.1230  370.9240 C   0  0  0  0  0  0  0  0  0  0  0  0
   27.1590   65.1410  371.0920 C   0  0  1  0  0  0  0  0  0  0  0  0
   26.5970   64.0670  371.9580 C   0  0  2  0  0  0  0  0  0  0  0  0
   26.4110   64.6150  373.3400 C   0  0  1  0  0  0  0  0  0  0  0  0
   25.4000   65.7450  373.2620 C   0  0  1  0  0  0  0  0  0  0  0  0
   25.3090   66.5900  374.5350 C   0  0  0  0  0  0  0  0  0  0  0  0
   28.9320   64.8120  369.4130 C   0  0  0  0  0  0  0  0  0  0  0  0
   29.4110   63.9100  368.3200 C   0  0  0  0  0  0  0  0  0  0  0  0
   27.6600   64.6470  369.8280 N   0  0  0  0  0  0  0  0  0  0  0  0
   27.5540   63.0560  372.0840 O   0  0  0  0  0  0  0  0  0  0  0  0
   25.9880   63.5240  374.1590 O   0  0  0  0  0  0  0  0  0  0  0  0
   25.7640   66.6400  372.2140 O   0  0  0  0  0  0  0  0  0  0  0  0
   25.1370   65.8330  375.7340 O   0  0  0  0  0  0  0  0  0  0  0  0
   29.7000   65.6240  369.8640 O   0  0  0  0  0  0  0  0  0  0  0  0
  1 12  1  0  0  0  0
  2  9  1  6  0  0  0
  2  3  1  0  0  0  0
  2  1  1  0  0  0  0
  3 10  1  6  0  0  0
  3  4  1  0  0  0  0
  4 11  1  6  0  0  0
  4  5  1  0  0  0  0
  5  6  1  1  0  0  0
  6 13  1  0  0  0  0
  7  9  1  0  0  0  0
  7  8  1  0  0  0  0
 12  5  1  0  0  0  0
 14  7  2  0  0  0  0
 15 11  1  6  0  0  0
 15 16  1  0  0  0  0
 16 23  1  1  0  0  0
 16 17  1  0  0  0  0
 17 24  1  6  0  0  0
 18 17  1  0  0  0  0
 18 25  1  1  0  0  0
 19 20  1  6  0  0  0
 19 18  1  0  0  0  0
 21 23  1  0  0  0  0
 21 22  1  0  0  0  0
 26 15  1  0  0  0  0
 26 19  1  0  0  0  0
 27 20  1  0  0  0  0
 28 21  2  0  0  0  0
 29 40  1  0  0  0  0
 30 37  1  6  0  0  0
 30 29  1  0  0  0  0
 31 38  1  6  0  0  0
 31 30  1  0  0  0  0
 31 32  1  0  0  0  0
 32 39  1  6  0  0  0
 32 33  1  0  0  0  0
 33 40  1  0  0  0  0
 33 34  1  1  0  0  0
 34 41  1  0  0  0  0
 35 37  1  0  0  0  0
 35 36  1  0  0  0  0
 42 35  2  0  0  0  0
 43 39  1  6  0  0  0
 44 45  1  0  0  0  0
 44 51  1  1  0  0  0
 44 43  1  0  0  0  0
 45 52  1  6  0  0  0
 46 53  1  1  0  0  0
 46 47  1  0  0  0  0
 46 45  1  0  0  0  0
 47 48  1  6  0  0  0
 48 55  1  0  0  0  0
 49 50  1  0  0  0  0
 49 51  1  0  0  0  0
 54 47  1  0  0  0  0
 54 43  1  0  0  0  0
 56 49  2  0  0  0  0
 57 58  1  0  0  0  0
 57 68  1  0  0  0  0
 58 65  1  6  0  0  0
 58 59  1  0  0  0  0
 59 66  1  1  0  0  0
 59 60  1  0  0  0  0
 60 67  1  1  0  0  0
 61 60  1  0  0  0  0
 61 62  1  1  0  0  0
 62 69  1  0  0  0  0
 63 65  1  0  0  0  0
 63 70  2  0  0  0  0
 64 63  1  0  0  0  0
 68 61  1  0  0  0  0
M  END
$$$$
