/Users/chinazoemeh/HopeMScP/data/ligands/ache/AChE_13_7E3H/AChE_13_7E3H.pdb
 OpenBabel07172512173D

 56 58  0  0  1  0  0  0  0  0999 V2000
  -33.9400   48.6420  -42.2310 C   0  0  0  0  0  0  0  0  0  0  0  0
  -32.6520   48.7030  -43.0770 C   0  0  1  0  0  0  0  0  0  0  0  0
  -31.7550   47.4940  -42.7980 C   0  0  2  0  0  0  0  0  0  0  0  0
  -31.4840   47.3450  -41.3070 C   0  0  1  0  0  0  0  0  0  0  0  0
  -32.8260   47.2590  -40.5750 C   0  0  1  0  0  0  0  0  0  0  0  0
  -32.7030   47.1420  -39.0760 C   0  0  0  0  0  0  0  0  0  0  0  0
  -32.9000   49.8520  -45.2450 C   0  0  0  0  0  0  0  0  0  0  0  0
  -32.4070   51.0910  -44.5570 C   0  0  0  0  0  0  0  0  0  0  0  0
  -32.9910   48.7530  -44.4900 N   0  0  0  0  0  0  0  0  0  0  0  0
  -30.5290   47.6390  -43.5060 O   0  0  0  0  0  0  0  0  0  0  0  0
  -30.7010   46.1730  -41.0890 O   0  0  0  0  0  0  0  0  0  0  0  0
  -33.6040   48.4380  -40.8370 O   0  0  0  0  0  0  0  0  0  0  0  0
  -31.6750   47.9920  -38.5920 O   0  0  0  0  0  0  0  0  0  0  0  0
  -33.2020   49.8460  -46.4340 O   0  0  0  0  0  0  0  0  0  0  0  0
  -29.5390   46.3320  -40.2220 C   0  0  1  0  0  0  0  0  0  0  0  0
  -29.2240   44.9710  -39.5890 C   0  0  1  0  0  0  0  0  0  0  0  0
  -28.0080   45.0810  -38.6570 C   0  0  2  0  0  0  0  0  0  0  0  0
  -26.8260   45.7080  -39.3890 C   0  0  1  0  0  0  0  0  0  0  0  0
  -27.2370   47.0350  -40.0300 C   0  0  1  0  0  0  0  0  0  0  0  0
  -26.1370   47.6550  -40.8650 C   0  0  0  0  0  0  0  0  0  0  0  0
  -31.0870   43.4000  -39.2980 C   0  0  0  0  0  0  0  0  0  0  0  0
  -32.2560   43.0020  -38.4450 C   0  0  0  0  0  0  0  0  0  0  0  0
  -30.3780   44.4510  -38.8720 N   0  0  0  0  0  0  0  0  0  0  0  0
  -27.6470   43.7950  -38.1570 O   0  0  0  0  0  0  0  0  0  0  0  0
  -25.7390   45.9200  -38.4920 O   0  0  0  0  0  0  0  0  0  0  0  0
  -28.3690   46.8390  -40.8960 O   0  0  0  0  0  0  0  0  0  0  0  0
  -26.4430   49.0010  -41.2020 O   0  0  0  0  0  0  0  0  0  0  0  0
  -30.7980   42.7960  -40.3250 O   0  0  0  0  0  0  0  0  0  0  0  0
  -62.4410    9.0170  -75.0660 C   0  0  0  0  0  0  0  0  0  0  0  0
  -63.3860    8.4890  -73.9790 C   0  0  1  0  0  0  0  0  0  0  0  0
  -62.6360    7.5780  -73.0030 C   0  0  2  0  0  0  0  0  0  0  0  0
  -61.9670    6.4350  -73.7550 C   0  0  1  0  0  0  0  0  0  0  0  0
  -61.0280    7.0320  -74.8120 C   0  0  1  0  0  0  0  0  0  0  0  0
  -60.3880    5.9860  -75.6950 C   0  0  0  0  0  0  0  0  0  0  0  0
  -65.4000    9.6600  -73.2180 C   0  0  0  0  0  0  0  0  0  0  0  0
  -66.1750    8.5730  -73.9190 C   0  0  0  0  0  0  0  0  0  0  0  0
  -64.0650    9.5650  -73.2780 N   0  0  0  0  0  0  0  0  0  0  0  0
  -63.5300    7.0670  -72.0220 O   0  0  0  0  0  0  0  0  0  0  0  0
  -61.3010    5.5770  -72.8240 O   0  0  0  0  0  0  0  0  0  0  0  0
  -61.7660    7.9000  -75.6990 O   0  0  0  0  0  0  0  0  0  0  0  0
  -61.3940    5.1600  -76.2650 O   0  0  0  0  0  0  0  0  0  0  0  0
  -65.9600   10.5770  -72.6220 O   0  0  0  0  0  0  0  0  0  0  0  0
  -61.3850    4.1130  -73.0280 C   0  0  1  0  0  0  0  0  0  0  0  0
  -60.0620    3.5250  -72.5160 C   0  0  1  0  0  0  0  0  0  0  0  0
  -60.0010    2.0200  -72.7980 C   0  0  2  0  0  0  0  0  0  0  0  0
  -61.2260    1.3240  -72.2100 C   0  0  1  0  0  0  0  0  0  0  0  0
  -62.5170    1.9930  -72.6900 C   0  0  1  0  0  0  0  0  0  0  0  0
  -63.7470    1.4050  -72.0370 C   0  0  0  0  0  0  0  0  0  0  0  0
  -57.9530    4.7510  -72.3280 C   0  0  0  0  0  0  0  0  0  0  0  0
  -58.1060    4.5700  -70.8490 C   0  0  0  0  0  0  0  0  0  0  0  0
  -58.9160    4.2150  -73.0840 N   0  0  0  0  0  0  0  0  0  0  0  0
  -58.8080    1.4650  -72.2510 O   0  0  0  0  0  0  0  0  0  0  0  0
  -61.2540   -0.0510  -72.5810 O   0  0  0  0  0  0  0  0  0  0  0  0
  -62.5070    3.4050  -72.3930 O   0  0  0  0  0  0  0  0  0  0  0  0
  -64.6120    2.4170  -71.5390 O   0  0  0  0  0  0  0  0  0  0  0  0
  -56.9980    5.3440  -72.8150 O   0  0  0  0  0  0  0  0  0  0  0  0
  1 12  1  0  0  0  0
  2  9  1  6  0  0  0
  2  3  1  0  0  0  0
  2  1  1  0  0  0  0
  3 10  1  6  0  0  0
  3  4  1  0  0  0  0
  4 11  1  6  0  0  0
  4  5  1  0  0  0  0
  5  6  1  1  0  0  0
  6 13  1  0  0  0  0
  7  8  1  0  0  0  0
  7  9  1  0  0  0  0
 12  5  1  0  0  0  0
 14  7  2  0  0  0  0
 15 11  1  6  0  0  0
 15 16  1  0  0  0  0
 16 23  1  1  0  0  0
 16 17  1  0  0  0  0
 17 24  1  6  0  0  0
 18 17  1  0  0  0  0
 18 25  1  1  0  0  0
 19 20  1  6  0  0  0
 19 18  1  0  0  0  0
 21 23  1  0  0  0  0
 21 22  1  0  0  0  0
 26 15  1  0  0  0  0
 26 19  1  0  0  0  0
 27 20  1  0  0  0  0
 28 21  2  0  0  0  0
 29 30  1  0  0  0  0
 30 37  1  1  0  0  0
 30 31  1  0  0  0  0
 31 38  1  1  0  0  0
 32 31  1  0  0  0  0
 32 39  1  1  0  0  0
 33 34  1  6  0  0  0
 33 32  1  0  0  0  0
 35 42  2  0  0  0  0
 36 35  1  0  0  0  0
 37 35  1  0  0  0  0
 40 29  1  0  0  0  0
 40 33  1  0  0  0  0
 41 34  1  0  0  0  0
 43 39  1  1  0  0  0
 43 44  1  0  0  0  0
 43 54  1  0  0  0  0
 44 51  1  6  0  0  0
 45 44  1  0  0  0  0
 45 52  1  1  0  0  0
 45 46  1  0  0  0  0
 46 53  1  6  0  0  0
 47 54  1  0  0  0  0
 47 46  1  0  0  0  0
 47 48  1  1  0  0  0
 48 55  1  0  0  0  0
 49 50  1  0  0  0  0
 51 49  1  0  0  0  0
 56 49  2  0  0  0  0
M  END
$$$$
