/Users/chinazoemeh/HopeMScP/data/ligands/ache/AChE_53_6WVP/AChE_53_6WVP.pdb
 OpenBabel07172512173D

 70 72  0  0  1  0  0  0  0  0999 V2000
   23.1850   58.9440   21.6880 C   0  0  0  0  0  0  0  0  0  0  0  0
   24.0980   59.2140   20.5000 C   0  0  1  0  0  0  0  0  0  0  0  0
   24.2940   58.0220   19.6100 C   0  0  2  0  0  0  0  0  0  0  0  0
   24.7980   56.8860   20.4140 C   0  0  1  0  0  0  0  0  0  0  0  0
   23.8210   56.6860   21.5420 C   0  0  1  0  0  0  0  0  0  0  0  0
   24.2800   55.5290   22.3810 C   0  0  0  0  0  0  0  0  0  0  0  0
   24.1930   61.3600   19.5260 C   0  0  0  0  0  0  0  0  0  0  0  0
   25.3830   61.5170   20.4150 C   0  0  0  0  0  0  0  0  0  0  0  0
   23.5400   60.2380   19.6740 N   0  0  0  0  0  0  0  0  0  0  0  0
   25.2920   58.2680   18.6370 O   0  0  0  0  0  0  0  0  0  0  0  0
   24.7040   55.8280   19.4940 O   0  0  0  0  0  0  0  0  0  0  0  0
   23.7100   57.8330   22.3570 O   0  0  0  0  0  0  0  0  0  0  0  0
   25.6450   55.6990   22.6700 O   0  0  0  0  0  0  0  0  0  0  0  0
   23.8500   62.1910   18.7190 O   0  0  0  0  0  0  0  0  0  0  0  0
   59.8000    5.3830   11.8380 C   0  0  0  0  0  0  0  0  0  0  0  0
   59.5140    4.7200   10.5240 C   0  0  1  0  0  0  0  0  0  0  0  0
   58.1550    4.0550   10.3810 C   0  0  2  0  0  0  0  0  0  0  0  0
   57.6260    3.4240   11.6490 C   0  0  1  0  0  0  0  0  0  0  0  0
   57.7730    4.4180   12.7710 C   0  0  1  0  0  0  0  0  0  0  0  0
   57.1960    3.8870   14.0850 C   0  0  0  0  0  0  0  0  0  0  0  0
   58.8250    5.8320    8.4490 C   0  0  0  0  0  0  0  0  0  0  0  0
   59.6260    5.8660    7.1820 C   0  0  0  0  0  0  0  0  0  0  0  0
   59.5560    5.7870    9.5630 N   0  0  0  0  0  0  0  0  0  0  0  0
   58.3670    3.0500    9.4160 O   0  0  0  0  0  0  0  0  0  0  0  0
   56.2410    3.1350   11.5060 O   0  0  0  0  0  0  0  0  0  0  0  0
   59.1400    4.7350   12.9060 O   0  0  0  0  0  0  0  0  0  0  0  0
   58.1960    3.5690   15.0740 O   0  0  0  0  0  0  0  0  0  0  0  0
   57.6090    5.8770    8.4600 O   0  0  0  0  0  0  0  0  0  0  0  0
   55.2090    2.4410   11.9340 C   0  0  1  0  0  0  0  0  0  0  0  0
   55.4850    1.4330   13.0550 C   0  0  1  0  0  0  0  0  0  0  0  0
   54.1490    0.9060   13.5520 C   0  0  2  0  0  0  0  0  0  0  0  0
   53.4390    2.0680   14.2250 C   0  0  1  0  0  0  0  0  0  0  0  0
   53.2340    3.0980   13.1320 C   0  0  1  0  0  0  0  0  0  0  0  0
   52.4210    4.3150   13.5660 C   0  0  0  0  0  0  0  0  0  0  0  0
   56.2280   -0.6060   11.8750 C   0  0  0  0  0  0  0  0  0  0  0  0
   57.1920   -0.5280   10.7350 C   0  0  0  0  0  0  0  0  0  0  0  0
   56.4080    0.3300   12.7850 N   0  0  0  0  0  0  0  0  0  0  0  0
   54.3280   -0.1760   14.4510 O   0  0  0  0  0  0  0  0  0  0  0  0
   52.1880    1.6400   14.7910 O   0  0  0  0  0  0  0  0  0  0  0  0
   54.4920    3.4820   12.5820 O   0  0  0  0  0  0  0  0  0  0  0  0
   53.1620    5.1610   14.4200 O   0  0  0  0  0  0  0  0  0  0  0  0
   55.3480   -1.4450   11.9840 O   0  0  0  0  0  0  0  0  0  0  0  0
   26.1620   55.2700   19.6120 C   0  0  1  0  0  0  0  0  0  0  0  0
   26.3540   53.8710   19.0600 C   0  0  1  0  0  0  0  0  0  0  0  0
   27.7800   53.3720   19.0220 C   0  0  2  0  0  0  0  0  0  0  0  0
   28.6000   54.3830   18.2850 C   0  0  1  0  0  0  0  0  0  0  0  0
   28.4660   55.6440   19.1020 C   0  0  1  0  0  0  0  0  0  0  0  0
   29.4920   56.6840   18.6600 C   0  0  0  0  0  0  0  0  0  0  0  0
   24.5670   52.3550   19.1710 C   0  0  0  0  0  0  0  0  0  0  0  0
   23.5210   51.7620   20.0490 C   0  0  0  0  0  0  0  0  0  0  0  0
   25.5860   52.9100   19.7920 N   0  0  0  0  0  0  0  0  0  0  0  0
   27.8300   52.1690   18.2800 O   0  0  0  0  0  0  0  0  0  0  0  0
   29.9630   53.9590   18.2160 O   0  0  0  0  0  0  0  0  0  0  0  0
   27.1180   56.1120   18.9810 O   0  0  0  0  0  0  0  0  0  0  0  0
   29.8020   56.4980   17.2760 O   0  0  0  0  0  0  0  0  0  0  0  0
   24.5020   52.3490   17.9690 O   0  0  0  0  0  0  0  0  0  0  0  0
   80.6330   16.4490   25.6630 C   0  0  0  0  0  0  0  0  0  0  0  0
   80.4730   17.2020   26.9810 C   0  0  1  0  0  0  0  0  0  0  0  0
   81.5250   16.7560   27.9880 C   0  0  2  0  0  0  0  0  0  0  0  0
   82.8410   16.4630   27.2810 C   0  0  1  0  0  0  0  0  0  0  0  0
   82.9000   17.2050   25.9530 C   0  0  1  0  0  0  0  0  0  0  0  0
   84.2810   17.0850   25.3190 C   0  0  0  0  0  0  0  0  0  0  0  0
   79.5600   19.3490   26.3170 C   0  0  0  0  0  0  0  0  0  0  0  0
   78.2410   18.6340   26.2740 C   0  0  0  0  0  0  0  0  0  0  0  0
   80.5930   18.6260   26.7420 N   0  0  0  0  0  0  0  0  0  0  0  0
   81.0720   15.5800   28.6660 O   0  0  0  0  0  0  0  0  0  0  0  0
   83.9330   16.8750   28.1100 O   0  0  0  0  0  0  0  0  0  0  0  0
   81.9200   16.6570   25.0700 O   0  0  0  0  0  0  0  0  0  0  0  0
   84.3370   17.8990   24.1420 O   0  0  0  0  0  0  0  0  0  0  0  0
   79.6770   20.5160   25.9840 O   0  0  0  0  0  0  0  0  0  0  0  0
  1 12  1  0  0  0  0
  2  9  1  6  0  0  0
  2  1  1  0  0  0  0
  3 10  1  6  0  0  0
  3  4  1  0  0  0  0
  3  2  1  0  0  0  0
  4 11  1  6  0  0  0
  4  5  1  0  0  0  0
  5 12  1  0  0  0  0
  5  6  1  1  0  0  0
  6 13  1  0  0  0  0
  7  9  1  0  0  0  0
  7  8  1  0  0  0  0
 14  7  2  0  0  0  0
 15 26  1  0  0  0  0
 16 23  1  6  0  0  0
 16 15  1  0  0  0  0
 17 24  1  6  0  0  0
 17 16  1  0  0  0  0
 17 18  1  0  0  0  0
 18 25  1  6  0  0  0
 18 19  1  0  0  0  0
 19 26  1  0  0  0  0
 19 20  1  1  0  0  0
 20 27  1  0  0  0  0
 21 28  2  0  0  0  0
 21 23  1  0  0  0  0
 22 21  1  0  0  0  0
 29 25  1  1  0  0  0
 29 40  1  0  0  0  0
 29 30  1  0  0  0  0
 30 37  1  6  0  0  0
 30 31  1  0  0  0  0
 31 32  1  0  0  0  0
 31 38  1  1  0  0  0
 32 39  1  6  0  0  0
 33 34  1  1  0  0  0
 33 32  1  0  0  0  0
 34 41  1  0  0  0  0
 35 42  2  0  0  0  0
 35 37  1  0  0  0  0
 36 35  1  0  0  0  0
 40 33  1  0  0  0  0
 43 11  1  6  0  0  0
 44 43  1  0  0  0  0
 44 51  1  1  0  0  0
 45 52  1  6  0  0  0
 45 44  1  0  0  0  0
 46 53  1  1  0  0  0
 46 45  1  0  0  0  0
 46 47  1  0  0  0  0
 47 48  1  6  0  0  0
 49 51  1  0  0  0  0
 49 50  1  0  0  0  0
 54 47  1  0  0  0  0
 54 43  1  0  0  0  0
 55 48  1  0  0  0  0
 56 49  2  0  0  0  0
 57 58  1  0  0  0  0
 58 65  1  6  0  0  0
 58 59  1  0  0  0  0
 59 66  1  6  0  0  0
 60 59  1  0  0  0  0
 60 67  1  1  0  0  0
 61 62  1  6  0  0  0
 61 60  1  0  0  0  0
 63 65  1  0  0  0  0
 64 63  1  0  0  0  0
 68 57  1  0  0  0  0
 68 61  1  0  0  0  0
 69 62  1  0  0  0  0
 70 63  2  0  0  0  0
M  END
$$$$
