/Users/chinazoemeh/HopeMScP/data/ligands/ache/AChE_46_6NTN/AChE_46_6NTN.pdb
 OpenBabel07172512173D

 98101  0  0  1  0  0  0  0  0999 V2000
  -33.4390   49.1920  -43.0310 C   0  0  0  0  0  0  0  0  0  0  0  0
  -32.1610   48.9870  -43.8390 C   0  0  1  0  0  0  0  0  0  0  0  0
  -31.4470   47.7070  -43.4310 C   0  0  2  0  0  0  0  0  0  0  0  0
  -31.2490   47.6860  -41.9230 C   0  0  1  0  0  0  0  0  0  0  0  0
  -32.5850   47.8870  -41.2200 C   0  0  1  0  0  0  0  0  0  0  0  0
  -32.4070   47.8890  -39.7060 C   0  0  0  0  0  0  0  0  0  0  0  0
  -32.6320   50.0710  -45.9580 C   0  0  0  0  0  0  0  0  0  0  0  0
  -32.2840   51.3430  -45.2430 C   0  0  0  0  0  0  0  0  0  0  0  0
  -32.4690   48.9530  -45.2560 N   0  0  0  0  0  0  0  0  0  0  0  0
  -30.1740   47.6380  -44.0830 O   0  0  0  0  0  0  0  0  0  0  0  0
  -30.6830   46.4310  -41.5300 O   0  0  0  0  0  0  0  0  0  0  0  0
  -33.1780   49.1210  -41.6280 O   0  0  0  0  0  0  0  0  0  0  0  0
  -31.6480   49.0400  -39.3170 O   0  0  0  0  0  0  0  0  0  0  0  0
  -33.0370   50.0630  -47.1080 O   0  0  0  0  0  0  0  0  0  0  0  0
  -29.4390   46.6800  -40.8510 C   0  0  1  0  0  0  0  0  0  0  0  0
  -28.8200   45.3600  -40.3960 C   0  0  1  0  0  0  0  0  0  0  0  0
  -27.4660   45.5830  -39.7390 C   0  0  2  0  0  0  0  0  0  0  0  0
  -26.5790   46.4200  -40.6470 C   0  0  1  0  0  0  0  0  0  0  0  0
  -27.2900   47.7160  -41.0110 C   0  0  1  0  0  0  0  0  0  0  0  0
  -26.4250   48.5720  -41.9290 C   0  0  0  0  0  0  0  0  0  0  0  0
  -30.5020   43.6890  -39.8540 C   0  0  0  0  0  0  0  0  0  0  0  0
  -31.4860   43.2100  -38.8280 C   0  0  0  0  0  0  0  0  0  0  0  0
  -29.7030   44.6800  -39.4670 N   0  0  0  0  0  0  0  0  0  0  0  0
  -26.8390   44.3200  -39.4890 O   0  0  0  0  0  0  0  0  0  0  0  0
  -25.3500   46.7190  -39.9760 O   0  0  0  0  0  0  0  0  0  0  0  0
  -28.5290   47.4300  -41.6590 O   0  0  0  0  0  0  0  0  0  0  0  0
  -26.2750   47.9150  -43.1920 O   0  0  0  0  0  0  0  0  0  0  0  0
  -30.4390   43.2020  -40.9710 O   0  0  0  0  0  0  0  0  0  0  0  0
  -33.7450   10.3360   -7.9510 C   0  0  0  0  0  0  0  0  0  0  0  0
  -34.1220    8.8990   -7.6020 C   0  0  1  0  0  0  0  0  0  0  0  0
  -35.3940    8.8450   -6.7680 C   0  0  2  0  0  0  0  0  0  0  0  0
  -35.2640    9.7720   -5.5700 C   0  0  1  0  0  0  0  0  0  0  0  0
  -34.8990   11.1760   -6.0340 C   0  0  1  0  0  0  0  0  0  0  0  0
  -34.7440   12.1180   -4.8460 C   0  0  0  0  0  0  0  0  0  0  0  0
  -33.2500    7.6080   -9.4630 C   0  0  0  0  0  0  0  0  0  0  0  0
  -31.9480    7.6290   -8.7180 C   0  0  0  0  0  0  0  0  0  0  0  0
  -34.2920    8.1220   -8.8150 N   0  0  0  0  0  0  0  0  0  0  0  0
  -35.6160    7.5050   -6.3170 O   0  0  0  0  0  0  0  0  0  0  0  0
  -36.5050    9.8110   -4.8580 O   0  0  0  0  0  0  0  0  0  0  0  0
  -33.6800   11.1490   -6.7780 O   0  0  0  0  0  0  0  0  0  0  0  0
  -33.5940   11.7370   -4.0820 O   0  0  0  0  0  0  0  0  0  0  0  0
  -33.3460    7.1500  -10.5890 O   0  0  0  0  0  0  0  0  0  0  0  0
  -36.2990    9.2670   -3.5410 C   0  0  1  0  0  0  0  0  0  0  0  0
  -37.5370    9.5050   -2.6790 C   0  0  1  0  0  0  0  0  0  0  0  0
  -37.3790    8.8780   -1.3010 C   0  0  2  0  0  0  0  0  0  0  0  0
  -36.9720    7.4200   -1.4380 C   0  0  1  0  0  0  0  0  0  0  0  0
  -35.7190    7.3100   -2.2950 C   0  0  1  0  0  0  0  0  0  0  0  0
  -35.2960    5.8550   -2.4560 C   0  0  0  0  0  0  0  0  0  0  0  0
  -38.7020   11.5540   -3.2780 C   0  0  0  0  0  0  0  0  0  0  0  0
  -39.6210   10.6680   -4.0660 C   0  0  0  0  0  0  0  0  0  0  0  0
  -37.7910   10.9270   -2.5390 N   0  0  0  0  0  0  0  0  0  0  0  0
  -38.6170    8.9670   -0.5890 O   0  0  0  0  0  0  0  0  0  0  0  0
  -36.7170    6.8690   -0.1410 O   0  0  0  0  0  0  0  0  0  0  0  0
  -35.9550    7.8810   -3.5830 O   0  0  0  0  0  0  0  0  0  0  0  0
  -36.2840    5.1530   -3.2190 O   0  0  0  0  0  0  0  0  0  0  0  0
  -38.7850   12.7710   -3.3120 O   0  0  0  0  0  0  0  0  0  0  0  0
  -62.5790   -9.1020  -32.4330 C   0  0  0  0  0  0  0  0  0  0  0  0
  -63.1140   -8.6310  -33.7820 C   0  0  1  0  0  0  0  0  0  0  0  0
  -62.0310   -7.9390  -34.5980 C   0  0  2  0  0  0  0  0  0  0  0  0
  -61.3730   -6.8510  -33.7640 C   0  0  1  0  0  0  0  0  0  0  0  0
  -60.8680   -7.4340  -32.4510 C   0  0  1  0  0  0  0  0  0  0  0  0
  -60.2230   -6.3550  -31.5890 C   0  0  0  0  0  0  0  0  0  0  0  0
  -64.8710  -10.2270  -34.2840 C   0  0  0  0  0  0  0  0  0  0  0  0
  -65.7150   -9.4040  -33.3570 C   0  0  0  0  0  0  0  0  0  0  0  0
  -63.6500   -9.7560  -34.5230 N   0  0  0  0  0  0  0  0  0  0  0  0
  -62.6110   -7.3600  -35.7720 O   0  0  0  0  0  0  0  0  0  0  0  0
  -60.2770   -6.2870  -34.4920 O   0  0  0  0  0  0  0  0  0  0  0  0
  -61.9460   -8.0320  -31.7290 O   0  0  0  0  0  0  0  0  0  0  0  0
  -61.2190   -5.4100  -31.1830 O   0  0  0  0  0  0  0  0  0  0  0  0
  -65.2780  -11.2620  -34.7860 O   0  0  0  0  0  0  0  0  0  0  0  0
  -60.4950   -4.8720  -34.6360 C   0  0  1  0  0  0  0  0  0  0  0  0
  -59.2910   -4.2400  -35.3290 C   0  0  1  0  0  0  0  0  0  0  0  0
  -59.5020   -2.7510  -35.5760 C   0  0  2  0  0  0  0  0  0  0  0  0
  -60.8430   -2.5200  -36.2560 C   0  0  1  0  0  0  0  0  0  0  0  0
  -61.9590   -3.1770  -35.4570 C   0  0  1  0  0  0  0  0  0  0  0  0
  -63.3090   -2.9640  -36.1310 C   0  0  0  0  0  0  0  0  0  0  0  0
  -57.0020   -3.7230  -34.6800 C   0  0  0  0  0  0  0  0  0  0  0  0
  -56.1000   -3.6470  -33.4840 C   0  0  0  0  0  0  0  0  0  0  0  0
  -58.1010   -4.4570  -34.5280 N   0  0  0  0  0  0  0  0  0  0  0  0
  -58.4580   -2.2450  -36.4140 O   0  0  0  0  0  0  0  0  0  0  0  0
  -61.0910   -1.1140  -36.3600 O   0  0  0  0  0  0  0  0  0  0  0  0
  -61.7090   -4.5770  -35.3290 O   0  0  0  0  0  0  0  0  0  0  0  0
  -64.3500   -3.4620  -35.2820 O   0  0  0  0  0  0  0  0  0  0  0  0
  -56.7450   -3.1480  -35.7250 O   0  0  0  0  0  0  0  0  0  0  0  0
  -58.0180  -20.6820   -7.9800 C   0  0  0  0  0  0  0  0  0  0  0  0
  -59.2750  -20.5290   -7.1280 C   0  0  1  0  0  0  0  0  0  0  0  0
  -59.6000  -19.0640   -6.8630 C   0  0  2  0  0  0  0  0  0  0  0  0
  -58.3670  -18.3430   -6.3400 C   0  0  1  0  0  0  0  0  0  0  0  0
  -57.1940  -18.5530   -7.2870 C   0  0  1  0  0  0  0  0  0  0  0  0
  -55.9450  -17.8460   -6.7720 C   0  0  0  0  0  0  0  0  0  0  0  0
  -61.6540  -20.9260   -7.4600 C   0  0  0  0  0  0  0  0  0  0  0  0
  -62.6690  -21.2080   -8.5280 C   0  0  0  0  0  0  0  0  0  0  0  0
  -60.3900  -21.1860   -7.7850 N   0  0  0  0  0  0  0  0  0  0  0  0
  -60.6480  -18.9670   -5.8920 O   0  0  0  0  0  0  0  0  0  0  0  0
  -58.6440  -16.9430   -6.2230 O   0  0  0  0  0  0  0  0  0  0  0  0
  -56.9240  -19.9470   -7.4300 O   0  0  0  0  0  0  0  0  0  0  0  0
  -55.5020  -18.4800   -5.5670 O   0  0  0  0  0  0  0  0  0  0  0  0
  -61.9660  -20.4870   -6.3660 O   0  0  0  0  0  0  0  0  0  0  0  0
  1 12  1  0  0  0  0
  2  9  1  6  0  0  0
  2  3  1  0  0  0  0
  2  1  1  0  0  0  0
  3 10  1  6  0  0  0
  3  4  1  0  0  0  0
  4 11  1  1  0  0  0
  4  5  1  0  0  0  0
  5  6  1  1  0  0  0
  6 13  1  0  0  0  0
  7  9  1  0  0  0  0
  7  8  1  0  0  0  0
 12  5  1  0  0  0  0
 14  7  2  0  0  0  0
 15 11  1  6  0  0  0
 15 16  1  0  0  0  0
 16 17  1  0  0  0  0
 16 23  1  1  0  0  0
 17 24  1  6  0  0  0
 18 25  1  1  0  0  0
 18 17  1  0  0  0  0
 19 20  1  6  0  0  0
 19 18  1  0  0  0  0
 21 23  1  0  0  0  0
 21 22  1  0  0  0  0
 26 19  1  0  0  0  0
 26 15  1  0  0  0  0
 27 20  1  0  0  0  0
 28 21  2  0  0  0  0
 29 30  1  0  0  0  0
 29 40  1  0  0  0  0
 30 37  1  6  0  0  0
 30 31  1  0  0  0  0
 31 38  1  1  0  0  0
 31 32  1  0  0  0  0
 32 39  1  6  0  0  0
 33 32  1  0  0  0  0
 33 34  1  1  0  0  0
 34 41  1  0  0  0  0
 35 37  1  0  0  0  0
 35 36  1  0  0  0  0
 40 33  1  0  0  0  0
 42 35  2  0  0  0  0
 43 39  1  6  0  0  0
 43 44  1  0  0  0  0
 44 51  1  1  0  0  0
 44 45  1  0  0  0  0
 45 52  1  6  0  0  0
 46 45  1  0  0  0  0
 46 53  1  1  0  0  0
 47 48  1  6  0  0  0
 47 46  1  0  0  0  0
 49 51  1  0  0  0  0
 50 49  1  0  0  0  0
 54 43  1  0  0  0  0
 54 47  1  0  0  0  0
 55 48  1  0  0  0  0
 56 49  2  0  0  0  0
 57 68  1  0  0  0  0
 58 65  1  6  0  0  0
 58 57  1  0  0  0  0
 59 66  1  6  0  0  0
 59 58  1  0  0  0  0
 59 60  1  0  0  0  0
 60 67  1  6  0  0  0
 60 61  1  0  0  0  0
 61 68  1  0  0  0  0
 61 62  1  1  0  0  0
 62 69  1  0  0  0  0
 63 64  1  0  0  0  0
 65 63  1  0  0  0  0
 70 63  2  0  0  0  0
 71 67  1  6  0  0  0
 72 71  1  0  0  0  0
 72 79  1  1  0  0  0
 73 80  1  6  0  0  0
 73 72  1  0  0  0  0
 74 81  1  1  0  0  0
 74 73  1  0  0  0  0
 74 75  1  0  0  0  0
 75 76  1  6  0  0  0
 75 82  1  0  0  0  0
 76 83  1  0  0  0  0
 77 79  1  0  0  0  0
 77 78  1  0  0  0  0
 82 71  1  0  0  0  0
 84 77  2  0  0  0  0
 85 96  1  0  0  0  0
 85 86  1  0  0  0  0
 86 93  1  6  0  0  0
 86 87  1  0  0  0  0
 87 88  1  0  0  0  0
 87 94  1  1  0  0  0
 88 95  1  6  0  0  0
 89 90  1  1  0  0  0
 89 88  1  0  0  0  0
 90 97  1  0  0  0  0
 91 98  2  0  0  0  0
 92 91  1  0  0  0  0
 93 91  1  0  0  0  0
 96 89  1  0  0  0  0
M  END
$$$$
