/Users/chinazoemeh/HopeMScP/data/ligands/ache/AChE_63_5HF8/AChE_63_5HF8.pdb
 OpenBabel07172512173D

 70 72  0  0  1  0  0  0  0  0999 V2000
  -22.7880  -59.1200   22.0780 C   0  0  0  0  0  0  0  0  0  0  0  0
  -23.6500  -59.5450   20.8830 C   0  0  1  0  0  0  0  0  0  0  0  0
  -24.0170  -58.3330   20.0260 C   0  0  2  0  0  0  0  0  0  0  0  0
  -24.6120  -57.2240   20.8830 C   0  0  1  0  0  0  0  0  0  0  0  0
  -23.6800  -56.9130   22.0520 C   0  0  1  0  0  0  0  0  0  0  0  0
  -24.2380  -55.8870   23.0130 C   0  0  0  0  0  0  0  0  0  0  0  0
  -23.5330  -61.7050   19.7160 C   0  0  0  0  0  0  0  0  0  0  0  0
  -24.9430  -61.9320   20.1850 C   0  0  0  0  0  0  0  0  0  0  0  0
  -22.9690  -60.5490   20.0810 N   0  0  0  0  0  0  0  0  0  0  0  0
  -24.9530  -58.7310   19.0300 O   0  0  0  0  0  0  0  0  0  0  0  0
  -24.8070  -56.0610   20.0840 O   0  0  0  0  0  0  0  0  0  0  0  0
  -23.4570  -58.1070   22.8120 O   0  0  0  0  0  0  0  0  0  0  0  0
  -25.6070  -56.1460   23.2970 O   0  0  0  0  0  0  0  0  0  0  0  0
  -22.9310  -62.5320   19.0400 O   0  0  0  0  0  0  0  0  0  0  0  0
  -26.1800  -55.6070   20.1780 C   0  0  1  0  0  0  0  0  0  0  0  0
  -26.2070  -54.1180   19.8160 C   0  0  1  0  0  0  0  0  0  0  0  0
  -27.6380  -53.5780   19.8880 C   0  0  2  0  0  0  0  0  0  0  0  0
  -28.5900  -54.4520   19.0740 C   0  0  1  0  0  0  0  0  0  0  0  0
  -28.4390  -55.9260   19.4590 C   0  0  1  0  0  0  0  0  0  0  0  0
  -29.2600  -56.8590   18.5960 C   0  0  0  0  0  0  0  0  0  0  0  0
  -24.1380  -52.8800   20.2970 C   0  0  0  0  0  0  0  0  0  0  0  0
  -23.3540  -52.1350   21.3360 C   0  0  0  0  0  0  0  0  0  0  0  0
  -25.3240  -53.3610   20.6900 N   0  0  0  0  0  0  0  0  0  0  0  0
  -27.6680  -52.2430   19.3900 O   0  0  0  0  0  0  0  0  0  0  0  0
  -29.9350  -54.0310   19.2830 O   0  0  0  0  0  0  0  0  0  0  0  0
  -27.0690  -56.3300   19.3120 O   0  0  0  0  0  0  0  0  0  0  0  0
  -30.5970  -56.4040   18.4510 O   0  0  0  0  0  0  0  0  0  0  0  0
  -23.7200  -53.0350   19.1510 O   0  0  0  0  0  0  0  0  0  0  0  0
   25.7810  -54.1410  -11.4480 C   0  0  0  0  0  0  0  0  0  0  0  0
   26.5170  -53.0320  -10.7060 C   0  0  1  0  0  0  0  0  0  0  0  0
   25.8690  -51.6870  -11.0040 C   0  0  2  0  0  0  0  0  0  0  0  0
   25.8610  -51.4370  -12.5070 C   0  0  1  0  0  0  0  0  0  0  0  0
   25.1750  -52.6050  -13.2270 C   0  0  1  0  0  0  0  0  0  0  0  0
   25.2680  -52.5270  -14.7380 C   0  0  0  0  0  0  0  0  0  0  0  0
   27.6720  -53.6240   -8.6200 C   0  0  0  0  0  0  0  0  0  0  0  0
   28.9210  -53.7350   -9.4550 C   0  0  0  0  0  0  0  0  0  0  0  0
   26.5540  -53.2820   -9.2740 N   0  0  0  0  0  0  0  0  0  0  0  0
   26.5720  -50.6500  -10.3300 O   0  0  0  0  0  0  0  0  0  0  0  0
   25.1850  -50.2120  -12.7730 O   0  0  0  0  0  0  0  0  0  0  0  0
   25.7790  -53.8570  -12.8510 O   0  0  0  0  0  0  0  0  0  0  0  0
   26.5300  -52.0300  -15.1630 O   0  0  0  0  0  0  0  0  0  0  0  0
   27.6780  -53.8350   -7.4110 O   0  0  0  0  0  0  0  0  0  0  0  0
   25.9320  -49.3190  -13.6520 C   0  0  1  0  0  0  0  0  0  0  0  0
   24.9640  -48.2510  -14.2030 C   0  0  1  0  0  0  0  0  0  0  0  0
   25.7090  -47.2580  -15.1080 C   0  0  2  0  0  0  0  0  0  0  0  0
   26.9570  -46.7120  -14.4190 C   0  0  1  0  0  0  0  0  0  0  0  0
   27.8270  -47.8610  -13.9160 C   0  0  1  0  0  0  0  0  0  0  0  0
   29.0610  -47.3960  -13.1700 C   0  0  0  0  0  0  0  0  0  0  0  0
   22.6400  -49.0420  -14.4280 C   0  0  0  0  0  0  0  0  0  0  0  0
   21.6470  -49.7210  -15.3290 C   0  0  0  0  0  0  0  0  0  0  0  0
   23.8690  -48.8790  -14.9310 N   0  0  0  0  0  0  0  0  0  0  0  0
   24.8340  -46.1860  -15.4490 O   0  0  0  0  0  0  0  0  0  0  0  0
   27.7110  -45.9020  -15.3200 O   0  0  0  0  0  0  0  0  0  0  0  0
   27.0650  -48.6730  -13.0130 O   0  0  0  0  0  0  0  0  0  0  0  0
   28.8850  -47.4630  -11.7600 O   0  0  0  0  0  0  0  0  0  0  0  0
   22.3370  -48.6570  -13.3000 O   0  0  0  0  0  0  0  0  0  0  0  0
   -7.9460  -35.3110  -46.8740 C   0  0  0  0  0  0  0  0  0  0  0  0
   -9.4680  -35.0790  -46.7870 C   0  0  1  0  0  0  0  0  0  0  0  0
  -10.1930  -35.7810  -47.9490 C   0  0  2  0  0  0  0  0  0  0  0  0
   -9.5450  -35.4750  -49.2980 C   0  0  1  0  0  0  0  0  0  0  0  0
   -8.0530  -35.7740  -49.2250 C   0  0  1  0  0  0  0  0  0  0  0  0
   -7.2870  -35.4920  -50.5040 C   0  0  0  0  0  0  0  0  0  0  0  0
  -10.8720  -34.9130  -44.7660 C   0  0  0  0  0  0  0  0  0  0  0  0
  -11.2750  -35.5860  -43.4850 C   0  0  0  0  0  0  0  0  0  0  0  0
   -9.9750  -35.5670  -45.5140 N   0  0  0  0  0  0  0  0  0  0  0  0
  -11.5610  -35.3860  -47.9680 O   0  0  0  0  0  0  0  0  0  0  0  0
  -10.1490  -36.2680  -50.3160 O   0  0  0  0  0  0  0  0  0  0  0  0
   -7.4730  -34.9640  -48.1950 O   0  0  0  0  0  0  0  0  0  0  0  0
   -7.9000  -34.4970  -51.3160 O   0  0  0  0  0  0  0  0  0  0  0  0
  -11.3320  -33.8240  -45.1030 O   0  0  0  0  0  0  0  0  0  0  0  0
  1 12  1  0  0  0  0
  2  9  1  6  0  0  0
  2  1  1  0  0  0  0
  3 10  1  6  0  0  0
  3  4  1  0  0  0  0
  3  2  1  0  0  0  0
  4 11  1  6  0  0  0
  4  5  1  0  0  0  0
  5 12  1  0  0  0  0
  5  6  1  1  0  0  0
  6 13  1  0  0  0  0
  7  9  1  0  0  0  0
  7  8  1  0  0  0  0
 14  7  2  0  0  0  0
 15 11  1  6  0  0  0
 16 17  1  0  0  0  0
 16 15  1  0  0  0  0
 16 23  1  1  0  0  0
 17 24  1  6  0  0  0
 18 25  1  1  0  0  0
 18 19  1  0  0  0  0
 18 17  1  0  0  0  0
 19 20  1  6  0  0  0
 21 23  1  0  0  0  0
 21 22  1  0  0  0  0
 26 19  1  0  0  0  0
 26 15  1  0  0  0  0
 27 20  1  0  0  0  0
 28 21  2  0  0  0  0
 29 30  1  0  0  0  0
 30 37  1  1  0  0  0
 31 30  1  0  0  0  0
 31 38  1  1  0  0  0
 32 39  1  1  0  0  0
 32 31  1  0  0  0  0
 33 34  1  6  0  0  0
 33 40  1  0  0  0  0
 33 32  1  0  0  0  0
 35 42  2  0  0  0  0
 36 35  1  0  0  0  0
 37 35  1  0  0  0  0
 40 29  1  0  0  0  0
 41 34  1  0  0  0  0
 43 54  1  0  0  0  0
 43 39  1  1  0  0  0
 44 51  1  6  0  0  0
 44 43  1  0  0  0  0
 45 52  1  1  0  0  0
 45 46  1  0  0  0  0
 45 44  1  0  0  0  0
 46 53  1  6  0  0  0
 46 47  1  0  0  0  0
 47 48  1  1  0  0  0
 47 54  1  0  0  0  0
 48 55  1  0  0  0  0
 49 56  2  0  0  0  0
 50 49  1  0  0  0  0
 51 49  1  0  0  0  0
 57 58  1  0  0  0  0
 58 65  1  1  0  0  0
 59 66  1  6  0  0  0
 59 58  1  0  0  0  0
 60 67  1  6  0  0  0
 60 61  1  0  0  0  0
 60 59  1  0  0  0  0
 61 62  1  6  0  0  0
 61 68  1  0  0  0  0
 63 64  1  0  0  0  0
 65 63  1  0  0  0  0
 68 57  1  0  0  0  0
 69 62  1  0  0  0  0
 70 63  2  0  0  0  0
M  END
$$$$
