/Users/chinazoemeh/HopeMScP/data/ligands/ache/AChE_16_6NTL/AChE_16_6NTL.pdb
 OpenBabel07172512173D

 84 87  0  0  1  0  0  0  0  0999 V2000
   -6.7620   85.9800  335.4700 C   0  0  0  0  0  0  0  0  0  0  0  0
   -6.2220   87.1670  334.6760 C   0  0  1  0  0  0  0  0  0  0  0  0
   -4.7320   87.3450  334.9380 C   0  0  2  0  0  0  0  0  0  0  0  0
   -4.4630   87.4730  336.4310 C   0  0  1  0  0  0  0  0  0  0  0  0
   -5.0730   86.2840  337.1780 C   0  0  1  0  0  0  0  0  0  0  0  0
   -4.9900   86.4160  338.6830 C   0  0  0  0  0  0  0  0  0  0  0  0
   -7.3140   87.7870  332.5640 C   0  0  0  0  0  0  0  0  0  0  0  0
   -7.9970   88.8710  333.3450 C   0  0  0  0  0  0  0  0  0  0  0  0
   -6.4770   87.0040  333.2540 N   0  0  0  0  0  0  0  0  0  0  0  0
   -4.2680   88.5060  334.2580 O   0  0  0  0  0  0  0  0  0  0  0  0
   -3.0550   87.5240  336.6390 O   0  0  0  0  0  0  0  0  0  0  0  0
   -6.4690   86.1570  336.8620 O   0  0  0  0  0  0  0  0  0  0  0  0
   -5.2230   87.7580  339.0900 O   0  0  0  0  0  0  0  0  0  0  0  0
   -7.5100   87.6280  331.3630 O   0  0  0  0  0  0  0  0  0  0  0  0
   -2.6600   88.6090  337.5160 C   0  0  1  0  0  0  0  0  0  0  0  0
   -1.2600   88.2730  338.0300 C   0  0  1  0  0  0  0  0  0  0  0  0
   -0.7660   89.3660  338.9750 C   0  0  2  0  0  0  0  0  0  0  0  0
   -0.8770   90.7350  338.3160 C   0  0  1  0  0  0  0  0  0  0  0  0
   -2.2890   90.9600  337.7800 C   0  0  1  0  0  0  0  0  0  0  0  0
   -2.4340   92.2550  337.0150 C   0  0  0  0  0  0  0  0  0  0  0  0
   -0.8360   85.8550  338.1020 C   0  0  0  0  0  0  0  0  0  0  0  0
   -0.9000   84.6110  338.9350 C   0  0  0  0  0  0  0  0  0  0  0  0
   -1.2500   86.9790  338.6950 N   0  0  0  0  0  0  0  0  0  0  0  0
    0.5880   89.1060  339.3260 O   0  0  0  0  0  0  0  0  0  0  0  0
   -0.5660   91.7540  339.2600 O   0  0  0  0  0  0  0  0  0  0  0  0
   -2.6430   89.9000  336.8780 O   0  0  0  0  0  0  0  0  0  0  0  0
   -3.3670   92.1290  335.9510 O   0  0  0  0  0  0  0  0  0  0  0  0
   -0.4250   85.8440  336.9460 O   0  0  0  0  0  0  0  0  0  0  0  0
   26.2920   66.2490  370.0740 C   0  0  0  0  0  0  0  0  0  0  0  0
   27.5060   65.3680  370.3300 C   0  0  1  0  0  0  0  0  0  0  0  0
   27.0830   64.1500  371.1470 C   0  0  2  0  0  0  0  0  0  0  0  0
   26.3300   64.5740  372.4050 C   0  0  1  0  0  0  0  0  0  0  0  0
   25.2270   65.5850  372.0860 C   0  0  1  0  0  0  0  0  0  0  0  0
   24.6080   66.2080  373.3180 C   0  0  0  0  0  0  0  0  0  0  0  0
   29.1780   65.5890  368.5310 C   0  0  0  0  0  0  0  0  0  0  0  0
   29.6910   66.7910  369.2690 C   0  0  0  0  0  0  0  0  0  0  0  0
   28.1360   64.9560  369.0840 N   0  0  0  0  0  0  0  0  0  0  0  0
   28.2210   63.3670  371.4920 O   0  0  0  0  0  0  0  0  0  0  0  0
   25.7130   63.4320  372.9870 O   0  0  0  0  0  0  0  0  0  0  0  0
   25.7490   66.6660  371.3050 O   0  0  0  0  0  0  0  0  0  0  0  0
   25.5830   66.8370  374.1390 O   0  0  0  0  0  0  0  0  0  0  0  0
   29.6830   65.2080  367.4800 O   0  0  0  0  0  0  0  0  0  0  0  0
   26.1820   63.2790  374.3330 C   0  0  1  0  0  0  0  0  0  0  0  0
   25.1500   62.4570  375.1070 C   0  0  1  0  0  0  0  0  0  0  0  0
   25.6450   62.1740  376.5250 C   0  0  2  0  0  0  0  0  0  0  0  0
   27.0490   61.5830  376.5000 C   0  0  1  0  0  0  0  0  0  0  0  0
   27.9750   62.4720  375.6790 C   0  0  1  0  0  0  0  0  0  0  0  0
   29.3670   61.9050  375.5270 C   0  0  0  0  0  0  0  0  0  0  0  0
   22.8050   62.7690  374.4170 C   0  0  0  0  0  0  0  0  0  0  0  0
   22.9970   61.5740  373.5310 C   0  0  0  0  0  0  0  0  0  0  0  0
   23.8660   63.1400  375.1440 N   0  0  0  0  0  0  0  0  0  0  0  0
   24.7500   61.2690  377.1630 O   0  0  0  0  0  0  0  0  0  0  0  0
   27.5550   61.4710  377.8250 O   0  0  0  0  0  0  0  0  0  0  0  0
   27.4410   62.6210  374.3580 O   0  0  0  0  0  0  0  0  0  0  0  0
   29.3660   60.7360  374.7190 O   0  0  0  0  0  0  0  0  0  0  0  0
   21.7370   63.3710  374.4720 O   0  0  0  0  0  0  0  0  0  0  0  0
   29.3880   32.4030  345.4080 C   0  0  0  0  0  0  0  0  0  0  0  0
   28.4090   31.9420  344.3300 C   0  0  1  0  0  0  0  0  0  0  0  0
   28.0280   33.1090  343.4270 C   0  0  2  0  0  0  0  0  0  0  0  0
   27.4810   34.2640  344.2550 C   0  0  1  0  0  0  0  0  0  0  0  0
   28.4800   34.6430  345.3520 C   0  0  1  0  0  0  0  0  0  0  0  0
   27.9300   35.6680  346.3140 C   0  0  0  0  0  0  0  0  0  0  0  0
   28.3850   29.6440  343.4630 C   0  0  0  0  0  0  0  0  0  0  0  0
   27.1040   29.4710  344.2250 C   0  0  0  0  0  0  0  0  0  0  0  0
   28.9630   30.8470  343.5500 N   0  0  0  0  0  0  0  0  0  0  0  0
   27.0540   32.6790  342.4830 O   0  0  0  0  0  0  0  0  0  0  0  0
   27.2460   35.3830  343.4050 O   0  0  0  0  0  0  0  0  0  0  0  0
   28.8150   33.4910  346.1430 O   0  0  0  0  0  0  0  0  0  0  0  0
   26.5630   35.3930  346.5870 O   0  0  0  0  0  0  0  0  0  0  0  0
   28.8740   28.7350  342.7980 O   0  0  0  0  0  0  0  0  0  0  0  0
   25.8760   35.8510  343.4270 C   0  0  1  0  0  0  0  0  0  0  0  0
   25.8750   37.2530  342.8080 C   0  0  1  0  0  0  0  0  0  0  0  0
   24.4540   37.8100  342.7420 C   0  0  2  0  0  0  0  0  0  0  0  0
   23.5280   36.8300  342.0350 C   0  0  1  0  0  0  0  0  0  0  0  0
   23.6080   35.4650  342.7100 C   0  0  1  0  0  0  0  0  0  0  0  0
   22.7770   34.4110  342.0160 C   0  0  0  0  0  0  0  0  0  0  0  0
   27.9790   38.4630  343.1700 C   0  0  0  0  0  0  0  0  0  0  0  0
   28.7310   39.4010  344.0640 C   0  0  0  0  0  0  0  0  0  0  0  0
   26.7390   38.1500  343.5580 N   0  0  0  0  0  0  0  0  0  0  0  0
   24.4660   39.0520  342.0470 O   0  0  0  0  0  0  0  0  0  0  0  0
   22.1870   37.3050  342.0740 O   0  0  0  0  0  0  0  0  0  0  0  0
   24.9670   35.0010  342.7010 O   0  0  0  0  0  0  0  0  0  0  0  0
   22.4690   33.3350  342.8920 O   0  0  0  0  0  0  0  0  0  0  0  0
   28.4720   38.0090  342.1420 O   0  0  0  0  0  0  0  0  0  0  0  0
  1 12  1  0  0  0  0
  2  9  1  6  0  0  0
  2  3  1  0  0  0  0
  2  1  1  0  0  0  0
  3 10  1  6  0  0  0
  3  4  1  0  0  0  0
  4 11  1  6  0  0  0
  4  5  1  0  0  0  0
  5  6  1  1  0  0  0
  6 13  1  0  0  0  0
  7  9  1  0  0  0  0
  7  8  1  0  0  0  0
 12  5  1  0  0  0  0
 14  7  2  0  0  0  0
 15 11  1  6  0  0  0
 15 16  1  0  0  0  0
 16 23  1  1  0  0  0
 16 17  1  0  0  0  0
 17 24  1  6  0  0  0
 18 17  1  0  0  0  0
 18 25  1  1  0  0  0
 19 20  1  6  0  0  0
 19 18  1  0  0  0  0
 21 23  1  0  0  0  0
 21 22  1  0  0  0  0
 26 15  1  0  0  0  0
 26 19  1  0  0  0  0
 27 20  1  0  0  0  0
 28 21  2  0  0  0  0
 29 30  1  0  0  0  0
 29 40  1  0  0  0  0
 30 37  1  6  0  0  0
 30 31  1  0  0  0  0
 31 38  1  1  0  0  0
 31 32  1  0  0  0  0
 32 39  1  6  0  0  0
 33 32  1  0  0  0  0
 33 34  1  1  0  0  0
 34 41  1  0  0  0  0
 35 37  1  0  0  0  0
 35 36  1  0  0  0  0
 40 33  1  0  0  0  0
 42 35  2  0  0  0  0
 43 39  1  6  0  0  0
 43 54  1  0  0  0  0
 43 44  1  0  0  0  0
 44 51  1  1  0  0  0
 44 45  1  0  0  0  0
 45 52  1  6  0  0  0
 46 45  1  0  0  0  0
 46 53  1  1  0  0  0
 47 48  1  6  0  0  0
 47 46  1  0  0  0  0
 49 56  2  0  0  0  0
 49 51  1  0  0  0  0
 50 49  1  0  0  0  0
 54 47  1  0  0  0  0
 55 48  1  0  0  0  0
 57 68  1  0  0  0  0
 58 65  1  6  0  0  0
 58 57  1  0  0  0  0
 59 66  1  6  0  0  0
 59 60  1  0  0  0  0
 59 58  1  0  0  0  0
 60 67  1  6  0  0  0
 60 61  1  0  0  0  0
 61 68  1  0  0  0  0
 61 62  1  1  0  0  0
 62 69  1  0  0  0  0
 63 65  1  0  0  0  0
 63 64  1  0  0  0  0
 70 63  2  0  0  0  0
 71 67  1  6  0  0  0
 72 71  1  0  0  0  0
 72 79  1  1  0  0  0
 73 80  1  6  0  0  0
 73 72  1  0  0  0  0
 74 81  1  1  0  0  0
 74 75  1  0  0  0  0
 74 73  1  0  0  0  0
 75 76  1  6  0  0  0
 76 83  1  0  0  0  0
 77 79  1  0  0  0  0
 77 78  1  0  0  0  0
 82 75  1  0  0  0  0
 82 71  1  0  0  0  0
 84 77  2  0  0  0  0
M  END
$$$$
