/Users/chinazoemeh/HopeMScP/data/ligands/ache/AChE_22_6O66/AChE_22_6O66.pdb
 OpenBabel07172512173D

 60 50  0  0  0  0  0  0  0  0999 V2000
   70.3360  147.5750  -14.0650 C   0  0  0  0  0  0  0  0  0  0  0  0
   70.9070  146.4800  -14.7470 O   0  0  0  0  0  0  0  0  0  0  0  0
   70.6510  147.4650  -12.5780 C   0  0  0  0  0  0  0  0  0  0  0  0
   71.6520  146.4940  -12.3680 O   0  0  0  0  0  0  0  0  0  0  0  0
   69.3890  147.0810  -11.8170 C   0  0  0  0  0  0  0  0  0  0  0  0
   69.7280  146.6440  -10.5200 O   0  0  0  0  0  0  0  0  0  0  0  0
   78.3740  152.4350   -7.0710 C   0  0  0  0  0  0  0  0  0  0  0  0
   79.2690  152.3000   -5.9910 O   0  0  0  0  0  0  0  0  0  0  0  0
   78.9860  153.3320   -8.1410 C   0  0  0  0  0  0  0  0  0  0  0  0
   78.5270  152.9300   -9.4120 O   0  0  0  0  0  0  0  0  0  0  0  0
   80.5040  153.2200   -8.0900 C   0  0  0  0  0  0  0  0  0  0  0  0
   81.0760  154.0260   -9.0950 O   0  0  0  0  0  0  0  0  0  0  0  0
   42.7370  154.9280  -10.0540 C   0  0  0  0  0  0  0  0  0  0  0  0
   42.3330  155.0880  -11.3960 O   0  0  0  0  0  0  0  0  0  0  0  0
   42.7040  153.4490   -9.6900 C   0  0  0  0  0  0  0  0  0  0  0  0
   41.3840  153.0790   -9.3600 O   0  0  0  0  0  0  0  0  0  0  0  0
   43.6200  153.1860   -8.5000 C   0  0  0  0  0  0  0  0  0  0  0  0
   43.1170  153.8530   -7.3640 O   0  0  0  0  0  0  0  0  0  0  0  0
   52.9380  157.6390  -33.5810 C   0  0  0  0  0  0  0  0  0  0  0  0
   51.6880  157.0400  -33.3190 O   0  0  0  0  0  0  0  0  0  0  0  0
   53.1040  158.8780  -32.7100 C   0  0  0  0  0  0  0  0  0  0  0  0
   52.7710  160.0270  -33.4550 O   0  0  0  0  0  0  0  0  0  0  0  0
   54.5530  158.9760  -32.2450 C   0  0  0  0  0  0  0  0  0  0  0  0
   54.7440  160.1890  -31.5530 O   0  0  0  0  0  0  0  0  0  0  0  0
   87.7880  139.0680   -9.0800 C   0  0  0  0  0  0  0  0  0  0  0  0
   88.5830  138.8730   -7.9330 O   0  0  0  0  0  0  0  0  0  0  0  0
   86.4980  138.2690   -8.9470 C   0  0  0  0  0  0  0  0  0  0  0  0
   86.3860  137.7840   -7.6270 O   0  0  0  0  0  0  0  0  0  0  0  0
   86.5210  137.0920   -9.9140 C   0  0  0  0  0  0  0  0  0  0  0  0
   86.5830  137.5730  -11.2380 O   0  0  0  0  0  0  0  0  0  0  0  0
   54.5570  147.3030   16.8070 C   0  0  0  0  0  0  0  0  0  0  0  0
   54.5130  146.5460   15.6190 O   0  0  0  0  0  0  0  0  0  0  0  0
   53.2110  147.2210   17.5190 C   0  0  0  0  0  0  0  0  0  0  0  0
   52.3950  146.2600   16.8880 O   0  0  0  0  0  0  0  0  0  0  0  0
   53.4400  146.8180   18.9700 C   0  0  0  0  0  0  0  0  0  0  0  0
   54.3150  147.7380   19.5830 O   0  0  0  0  0  0  0  0  0  0  0  0
   45.9110  152.3170   11.8670 C   0  0  0  0  0  0  0  0  0  0  0  0
   45.2560  152.5360   10.6380 O   0  0  0  0  0  0  0  0  0  0  0  0
   45.5070  153.3950   12.8660 C   0  0  0  0  0  0  0  0  0  0  0  0
   45.6460  152.9020   14.1800 O   0  0  0  0  0  0  0  0  0  0  0  0
   44.0620  153.8130   12.6160 C   0  0  0  0  0  0  0  0  0  0  0  0
   43.2730  153.4960   13.7420 O   0  0  0  0  0  0  0  0  0  0  0  0
   81.1990  153.1570   13.6090 C   0  0  0  0  0  0  0  0  0  0  0  0
   81.2080  153.4580   12.2320 O   0  0  0  0  0  0  0  0  0  0  0  0
   82.4440  153.7440   14.2620 C   0  0  0  0  0  0  0  0  0  0  0  0
   83.4290  152.7420   14.3780 O   0  0  0  0  0  0  0  0  0  0  0  0
   82.0920  154.2750   15.6470 C   0  0  0  0  0  0  0  0  0  0  0  0
   81.1490  155.3160   15.5250 O   0  0  0  0  0  0  0  0  0  0  0  0
   71.1540  157.6850   38.1040 C   0  0  0  0  0  0  0  0  0  0  0  0
   72.3520  157.1490   38.6220 O   0  0  0  0  0  0  0  0  0  0  0  0
   71.3110  159.1890   37.9230 C   0  0  0  0  0  0  0  0  0  0  0  0
   72.6780  159.5310   37.9810 O   0  0  0  0  0  0  0  0  0  0  0  0
   70.7390  159.6100   36.5740 C   0  0  0  0  0  0  0  0  0  0  0  0
   69.3330  159.5290   36.6130 O   0  0  0  0  0  0  0  0  0  0  0  0
   38.1890  137.3290   14.1910 C   0  0  0  0  0  0  0  0  0  0  0  0
   37.6850  137.2490   15.5060 O   0  0  0  0  0  0  0  0  0  0  0  0
   37.6350  138.5760   13.5130 C   0  0  0  0  0  0  0  0  0  0  0  0
   36.4000  138.9170   14.1010 O   0  0  0  0  0  0  0  0  0  0  0  0
   37.4290  138.3020   12.0270 C   0  0  0  0  0  0  0  0  0  0  0  0
   36.4210  137.3310   11.8550 O   0  0  0  0  0  0  0  0  0  0  0  0
  1  3  1  0  0  0  0
  2  1  1  0  0  0  0
  3  4  1  0  0  0  0
  3  5  1  0  0  0  0
  5  6  1  0  0  0  0
  7  8  1  0  0  0  0
  9 11  1  0  0  0  0
  9  7  1  0  0  0  0
 10  9  1  0  0  0  0
 12 11  1  0  0  0  0
 13 15  1  0  0  0  0
 14 13  1  0  0  0  0
 15 16  1  0  0  0  0
 15 17  1  0  0  0  0
 17 18  1  0  0  0  0
 19 20  1  0  0  0  0
 19 21  1  0  0  0  0
 21 23  1  0  0  0  0
 22 21  1  0  0  0  0
 23 24  1  0  0  0  0
 25 27  1  0  0  0  0
 25 26  1  0  0  0  0
 27 28  1  0  0  0  0
 29 27  1  0  0  0  0
 30 29  1  0  0  0  0
 31 33  1  0  0  0  0
 32 31  1  0  0  0  0
 33 35  1  0  0  0  0
 34 33  1  0  0  0  0
 35 36  1  0  0  0  0
 37 39  1  0  0  0  0
 38 37  1  0  0  0  0
 39 40  1  0  0  0  0
 41 39  1  0  0  0  0
 41 42  1  0  0  0  0
 43 45  1  0  0  0  0
 44 43  1  0  0  0  0
 45 46  1  0  0  0  0
 45 47  1  0  0  0  0
 48 47  1  0  0  0  0
 49 50  1  0  0  0  0
 51 52  1  0  0  0  0
 51 49  1  0  0  0  0
 53 54  1  0  0  0  0
 53 51  1  0  0  0  0
 55 56  1  0  0  0  0
 57 58  1  0  0  0  0
 57 55  1  0  0  0  0
 59 57  1  0  0  0  0
 60 59  1  0  0  0  0
M  END
$$$$
