/Users/chinazoemeh/HopeMScP/data/ligands/ache/AChE_69_6ZWE/AChE_69_6ZWE.pdb
 OpenBabel07172512173D

 98101  0  0  1  0  0  0  0  0999 V2000
 -103.4280   45.9260   -1.2100 C   0  0  0  0  0  0  0  0  0  0  0  0
 -102.4560   46.4880   -0.1890 C   0  0  1  0  0  0  0  0  0  0  0  0
 -103.2020   46.8510    1.0880 C   0  0  2  0  0  0  0  0  0  0  0  0
 -104.3490   47.8110    0.7880 C   0  0  1  0  0  0  0  0  0  0  0  0
 -105.2430   47.2730   -0.3390 C   0  0  1  0  0  0  0  0  0  0  0  0
 -106.1650   48.3240   -0.9110 C   0  0  0  0  0  0  0  0  0  0  0  0
 -100.0960   45.8240    0.0830 C   0  0  0  0  0  0  0  0  0  0  0  0
  -99.7440   47.2450   -0.2380 C   0  0  0  0  0  0  0  0  0  0  0  0
 -101.4010   45.5270    0.0930 N   0  0  0  0  0  0  0  0  0  0  0  0
 -102.2900   47.4540    1.9990 O   0  0  0  0  0  0  0  0  0  0  0  0
 -105.1090   47.9960    1.9800 O   0  0  0  0  0  0  0  0  0  0  0  0
 -104.4440   46.8620   -1.4590 O   0  0  0  0  0  0  0  0  0  0  0  0
 -105.3590   49.1640   -1.7220 O   0  0  0  0  0  0  0  0  0  0  0  0
  -99.2370   44.9800    0.3250 O   0  0  0  0  0  0  0  0  0  0  0  0
 -105.5900   49.3620    2.1240 C   0  0  1  0  0  0  0  0  0  0  0  0
 -106.6760   49.3690    3.2030 C   0  0  1  0  0  0  0  0  0  0  0  0
 -107.2310   50.7790    3.3770 C   0  0  2  0  0  0  0  0  0  0  0  0
 -106.1030   51.7710    3.6360 C   0  0  1  0  0  0  0  0  0  0  0  0
 -105.0210   51.6520    2.5640 C   0  0  1  0  0  0  0  0  0  0  0  0
 -103.8130   52.5170    2.8370 C   0  0  0  0  0  0  0  0  0  0  0  0
 -107.9310   47.2810    3.5120 C   0  0  0  0  0  0  0  0  0  0  0  0
 -109.0790   46.4440    3.0330 C   0  0  0  0  0  0  0  0  0  0  0  0
 -107.7420   48.4380    2.8690 N   0  0  0  0  0  0  0  0  0  0  0  0
 -108.1580   50.7990    4.4560 O   0  0  0  0  0  0  0  0  0  0  0  0
 -106.6170   53.0980    3.6330 O   0  0  0  0  0  0  0  0  0  0  0  0
 -104.5510   50.2970    2.4790 O   0  0  0  0  0  0  0  0  0  0  0  0
 -103.0310   52.6970    1.6650 O   0  0  0  0  0  0  0  0  0  0  0  0
 -107.2100   46.9270    4.4380 O   0  0  0  0  0  0  0  0  0  0  0  0
 -148.8380   43.0570   20.7270 C   0  0  0  0  0  0  0  0  0  0  0  0
 -150.1180   42.2350   20.6700 C   0  0  1  0  0  0  0  0  0  0  0  0
 -151.1960   43.0410   19.9530 C   0  0  2  0  0  0  0  0  0  0  0  0
 -151.5790   44.2660   20.7800 C   0  0  1  0  0  0  0  0  0  0  0  0
 -150.4490   44.7590   21.6900 C   0  0  1  0  0  0  0  0  0  0  0  0
 -150.5590   44.3120   23.1360 C   0  0  0  0  0  0  0  0  0  0  0  0
 -149.5770   39.8270   20.6420 C   0  0  0  0  0  0  0  0  0  0  0  0
 -149.4720   39.9150   22.1370 C   0  0  0  0  0  0  0  0  0  0  0  0
 -149.8930   40.9620   20.0010 N   0  0  0  0  0  0  0  0  0  0  0  0
 -152.3260   42.2210   19.6450 O   0  0  0  0  0  0  0  0  0  0  0  0
 -151.8880   45.3500   19.9110 O   0  0  0  0  0  0  0  0  0  0  0  0
 -149.1330   44.4160   21.2100 O   0  0  0  0  0  0  0  0  0  0  0  0
 -149.2780   44.1790   23.7370 O   0  0  0  0  0  0  0  0  0  0  0  0
 -149.3910   38.7740   20.0400 O   0  0  0  0  0  0  0  0  0  0  0  0
 -153.6060   42.9300   19.6300 C   0  0  1  0  0  0  0  0  0  0  0  0
 -153.8900   43.5240   18.2380 C   0  0  1  0  0  0  0  0  0  0  0  0
 -155.3990   43.6050   17.9910 C   0  0  2  0  0  0  0  0  0  0  0  0
 -156.1720   43.8370   19.2870 C   0  0  1  0  0  0  0  0  0  0  0  0
 -155.8720   42.7600   20.3310 C   0  0  1  0  0  0  0  0  0  0  0  0
 -156.9720   41.7300   20.4430 C   0  0  0  0  0  0  0  0  0  0  0  0
 -152.7110   45.2910   16.9840 C   0  0  0  0  0  0  0  0  0  0  0  0
 -152.7090   44.3470   15.8190 C   0  0  0  0  0  0  0  0  0  0  0  0
 -153.2860   44.8420   18.1070 N   0  0  0  0  0  0  0  0  0  0  0  0
 -155.8450   42.4080   17.3630 O   0  0  0  0  0  0  0  0  0  0  0  0
 -155.8550   45.1170   19.8240 O   0  0  0  0  0  0  0  0  0  0  0  0
 -154.6730   42.0490   19.9930 O   0  0  0  0  0  0  0  0  0  0  0  0
 -158.0500   42.0290   19.5670 O   0  0  0  0  0  0  0  0  0  0  0  0
 -152.2130   46.4100   16.9150 O   0  0  0  0  0  0  0  0  0  0  0  0
  -96.0560   -6.7040   22.3370 C   0  0  0  0  0  0  0  0  0  0  0  0
  -97.4900   -7.1910   22.4190 C   0  0  1  0  0  0  0  0  0  0  0  0
  -98.1620   -6.6270   23.6570 C   0  0  2  0  0  0  0  0  0  0  0  0
  -97.3770   -7.0250   24.9000 C   0  0  1  0  0  0  0  0  0  0  0  0
  -95.8860   -6.6740   24.7590 C   0  0  1  0  0  0  0  0  0  0  0  0
  -95.0540   -7.2610   25.8780 C   0  0  0  0  0  0  0  0  0  0  0  0
  -98.5160   -7.7890   20.2800 C   0  0  0  0  0  0  0  0  0  0  0  0
  -98.0020   -9.1760   20.5440 C   0  0  0  0  0  0  0  0  0  0  0  0
  -98.2410   -6.8730   21.2170 N   0  0  0  0  0  0  0  0  0  0  0  0
  -99.4940   -7.1230   23.7360 O   0  0  0  0  0  0  0  0  0  0  0  0
  -97.9280   -6.3500   26.0290 O   0  0  0  0  0  0  0  0  0  0  0  0
  -95.3270   -7.1520   23.5150 O   0  0  0  0  0  0  0  0  0  0  0  0
  -93.8150   -7.8200   25.4570 O   0  0  0  0  0  0  0  0  0  0  0  0
  -99.1470   -7.5140   19.2670 O   0  0  0  0  0  0  0  0  0  0  0  0
  -98.5760   -7.2450   26.9800 C   0  0  1  0  0  0  0  0  0  0  0  0
  -99.4630   -6.4100   27.9110 C   0  0  1  0  0  0  0  0  0  0  0  0
 -100.1420   -7.3130   28.9390 C   0  0  2  0  0  0  0  0  0  0  0  0
 -100.8880   -8.4440   28.2440 C   0  0  1  0  0  0  0  0  0  0  0  0
  -99.9680   -9.1870   27.2760 C   0  0  1  0  0  0  0  0  0  0  0  0
 -100.6940  -10.2320   26.4630 C   0  0  0  0  0  0  0  0  0  0  0  0
  -99.1460   -4.1020   28.6910 C   0  0  0  0  0  0  0  0  0  0  0  0
 -100.4900   -3.8140   28.0890 C   0  0  0  0  0  0  0  0  0  0  0  0
  -98.7050   -5.3600   28.5720 N   0  0  0  0  0  0  0  0  0  0  0  0
 -101.0430   -6.5510   29.7340 O   0  0  0  0  0  0  0  0  0  0  0  0
 -101.3900   -9.3610   29.2110 O   0  0  0  0  0  0  0  0  0  0  0  0
  -99.3750   -8.2680   26.3430 O   0  0  0  0  0  0  0  0  0  0  0  0
 -102.0990  -10.1640   26.6700 O   0  0  0  0  0  0  0  0  0  0  0  0
  -98.4890   -3.2340   29.2560 O   0  0  0  0  0  0  0  0  0  0  0  0
 -113.8610   37.0600  -26.3360 C   0  0  0  0  0  0  0  0  0  0  0  0
 -113.6810   37.9100  -27.6090 C   0  0  1  0  0  0  0  0  0  0  0  0
 -113.9960   39.3820  -27.2990 C   0  0  2  0  0  0  0  0  0  0  0  0
 -115.3120   39.5220  -26.5370 C   0  0  1  0  0  0  0  0  0  0  0  0
 -115.3660   38.5400  -25.3700 C   0  0  1  0  0  0  0  0  0  0  0  0
 -116.6770   38.5440  -24.6230 C   0  0  0  0  0  0  0  0  0  0  0  0
 -111.9830   38.1460  -29.3730 C   0  0  0  0  0  0  0  0  0  0  0  0
 -110.5420   37.9490  -29.7330 C   0  0  0  0  0  0  0  0  0  0  0  0
 -112.3300   37.7810  -28.1350 N   0  0  0  0  0  0  0  0  0  0  0  0
 -114.0340   40.1470  -28.4990 O   0  0  0  0  0  0  0  0  0  0  0  0
 -115.4470   40.8450  -26.0290 O   0  0  0  0  0  0  0  0  0  0  0  0
 -115.1610   37.2100  -25.8540 O   0  0  0  0  0  0  0  0  0  0  0  0
 -116.7200   37.4610  -23.7030 O   0  0  0  0  0  0  0  0  0  0  0  0
 -112.7960   38.6100  -30.1690 O   0  0  0  0  0  0  0  0  0  0  0  0
  1  2  1  0  0  0  0
  2  9  1  1  0  0  0
  2  3  1  0  0  0  0
  3 10  1  1  0  0  0
  4  3  1  0  0  0  0
  4 11  1  1  0  0  0
  5  6  1  6  0  0  0
  5  4  1  0  0  0  0
  7  9  1  0  0  0  0
  7 14  2  0  0  0  0
  8  7  1  0  0  0  0
 12  1  1  0  0  0  0
 12  5  1  0  0  0  0
 13  6  1  0  0  0  0
 15 11  1  1  0  0  0
 15 26  1  0  0  0  0
 15 16  1  0  0  0  0
 16 23  1  6  0  0  0
 16 17  1  0  0  0  0
 17 18  1  0  0  0  0
 17 24  1  1  0  0  0
 18 25  1  6  0  0  0
 19 20  1  1  0  0  0
 19 18  1  0  0  0  0
 21 28  2  0  0  0  0
 22 21  1  0  0  0  0
 23 21  1  0  0  0  0
 26 19  1  0  0  0  0
 27 20  1  0  0  0  0
 29 40  1  0  0  0  0
 30 37  1  6  0  0  0
 30 29  1  0  0  0  0
 31 38  1  1  0  0  0
 31 30  1  0  0  0  0
 31 32  1  0  0  0  0
 32 39  1  6  0  0  0
 32 33  1  0  0  0  0
 33 34  1  1  0  0  0
 34 41  1  0  0  0  0
 35 36  1  0  0  0  0
 37 35  1  0  0  0  0
 40 33  1  0  0  0  0
 42 35  2  0  0  0  0
 43 38  1  6  0  0  0
 43 54  1  0  0  0  0
 44 51  1  1  0  0  0
 44 43  1  0  0  0  0
 45 52  1  1  0  0  0
 45 44  1  0  0  0  0
 45 46  1  0  0  0  0
 46 53  1  1  0  0  0
 46 47  1  0  0  0  0
 47 48  1  6  0  0  0
 49 51  1  0  0  0  0
 50 49  1  0  0  0  0
 54 47  1  0  0  0  0
 55 48  1  0  0  0  0
 56 49  2  0  0  0  0
 57 58  1  0  0  0  0
 57 68  1  0  0  0  0
 58 65  1  6  0  0  0
 58 59  1  0  0  0  0
 59 66  1  1  0  0  0
 59 60  1  0  0  0  0
 60 67  1  1  0  0  0
 61 60  1  0  0  0  0
 61 62  1  1  0  0  0
 63 64  1  0  0  0  0
 63 65  1  0  0  0  0
 68 61  1  0  0  0  0
 69 62  1  0  0  0  0
 70 63  2  0  0  0  0
 71 67  1  6  0  0  0
 71 72  1  0  0  0  0
 72 79  1  1  0  0  0
 72 73  1  0  0  0  0
 73 80  1  6  0  0  0
 74 73  1  0  0  0  0
 74 81  1  1  0  0  0
 75 76  1  6  0  0  0
 75 74  1  0  0  0  0
 76 83  1  0  0  0  0
 77 84  2  0  0  0  0
 78 77  1  0  0  0  0
 79 77  1  0  0  0  0
 82 71  1  0  0  0  0
 82 75  1  0  0  0  0
 85 96  1  0  0  0  0
 86 93  1  1  0  0  0
 86 87  1  0  0  0  0
 86 85  1  0  0  0  0
 87 94  1  6  0  0  0
 87 88  1  0  0  0  0
 88 95  1  1  0  0  0
 88 89  1  0  0  0  0
 89 90  1  6  0  0  0
 90 97  1  0  0  0  0
 91 93  1  0  0  0  0
 92 91  1  0  0  0  0
 96 89  1  0  0  0  0
 98 91  2  0  0  0  0
M  END
$$$$
