/Users/chinazoemeh/HopeMScP/data/ligands/ache/AChE_57_4EY5/AChE_57_4EY5.pdb
 OpenBabel07172512173D

 70 72  0  0  1  0  0  0  0  0999 V2000
  -22.9850  -58.8630   21.7410 C   0  0  0  0  0  0  0  0  0  0  0  0
  -23.8260  -59.3390   20.5420 C   0  0  1  0  0  0  0  0  0  0  0  0
  -24.3880  -58.2190   19.6610 C   0  0  2  0  0  0  0  0  0  0  0  0
  -24.8880  -57.0230   20.4620 C   0  0  1  0  0  0  0  0  0  0  0  0
  -23.8530  -56.6600   21.5240 C   0  0  1  0  0  0  0  0  0  0  0  0
  -24.2950  -55.4830   22.3930 C   0  0  0  0  0  0  0  0  0  0  0  0
  -23.1650  -61.5540   19.8050 C   0  0  0  0  0  0  0  0  0  0  0  0
  -24.5600  -62.0820   20.0030 C   0  0  0  0  0  0  0  0  0  0  0  0
  -23.0450  -60.2310   19.7050 N   0  0  0  0  0  0  0  0  0  0  0  0
  -25.4410  -58.7340   18.8750 O   0  0  0  0  0  0  0  0  0  0  0  0
  -25.1150  -55.9460   19.5740 O   0  0  0  0  0  0  0  0  0  0  0  0
  -23.6370  -57.7770   22.3540 O   0  0  0  0  0  0  0  0  0  0  0  0
  -25.6720  -55.6070   22.6680 O   0  0  0  0  0  0  0  0  0  0  0  0
  -22.1910  -62.3130   19.7460 O   0  0  0  0  0  0  0  0  0  0  0  0
  -26.5210  -55.4330   19.6510 C   0  0  1  0  0  0  0  0  0  0  0  0
  -26.5660  -54.0550   18.9830 C   0  0  1  0  0  0  0  0  0  0  0  0
  -27.9800  -53.4930   18.7790 C   0  0  2  0  0  0  0  0  0  0  0  0
  -28.9700  -54.5740   18.3520 C   0  0  1  0  0  0  0  0  0  0  0  0
  -28.8140  -55.7910   19.2590 C   0  0  1  0  0  0  0  0  0  0  0  0
  -29.8360  -56.8760   18.9430 C   0  0  0  0  0  0  0  0  0  0  0  0
  -24.5440  -52.7670   19.2960 C   0  0  0  0  0  0  0  0  0  0  0  0
  -23.5050  -52.4010   20.3230 C   0  0  0  0  0  0  0  0  0  0  0  0
  -25.7410  -53.1380   19.7520 N   0  0  0  0  0  0  0  0  0  0  0  0
  -27.9520  -52.4840   17.7900 O   0  0  0  0  0  0  0  0  0  0  0  0
  -30.2970  -54.0810   18.4020 O   0  0  0  0  0  0  0  0  0  0  0  0
  -27.5020  -56.3080   19.1280 O   0  0  0  0  0  0  0  0  0  0  0  0
  -29.7160  -57.9090   19.8970 O   0  0  0  0  0  0  0  0  0  0  0  0
  -24.2820  -52.7250   18.0900 O   0  0  0  0  0  0  0  0  0  0  0  0
   25.0890  -53.6260  -12.0980 C   0  0  0  0  0  0  0  0  0  0  0  0
   25.8010  -52.5460  -11.2780 C   0  0  1  0  0  0  0  0  0  0  0  0
   25.2020  -51.1540  -11.4790 C   0  0  2  0  0  0  0  0  0  0  0  0
   25.0960  -50.8000  -12.9580 C   0  0  1  0  0  0  0  0  0  0  0  0
   24.3450  -51.9280  -13.6700 C   0  0  1  0  0  0  0  0  0  0  0  0
   24.2930  -51.6950  -15.1780 C   0  0  0  0  0  0  0  0  0  0  0  0
   26.9090  -53.1230   -9.1870 C   0  0  0  0  0  0  0  0  0  0  0  0
   28.1870  -53.2440   -9.9730 C   0  0  0  0  0  0  0  0  0  0  0  0
   25.7860  -52.8910   -9.8690 N   0  0  0  0  0  0  0  0  0  0  0  0
   25.9840  -50.1950  -10.8050 O   0  0  0  0  0  0  0  0  0  0  0  0
   24.4330  -49.5480  -13.0770 O   0  0  0  0  0  0  0  0  0  0  0  0
   24.9420  -53.1950  -13.4350 O   0  0  0  0  0  0  0  0  0  0  0  0
   25.5750  -51.3180  -15.6300 O   0  0  0  0  0  0  0  0  0  0  0  0
   26.9240  -53.2400   -7.9610 O   0  0  0  0  0  0  0  0  0  0  0  0
   25.1490  -48.5310  -13.9610 C   0  0  1  0  0  0  0  0  0  0  0  0
   24.1090  -47.6240  -14.6210 C   0  0  1  0  0  0  0  0  0  0  0  0
   24.7570  -46.6530  -15.6070 C   0  0  2  0  0  0  0  0  0  0  0  0
   25.8850  -45.8910  -14.9200 C   0  0  1  0  0  0  0  0  0  0  0  0
   26.8260  -46.8340  -14.1660 C   0  0  1  0  0  0  0  0  0  0  0  0
   27.8080  -46.0180  -13.3300 C   0  0  0  0  0  0  0  0  0  0  0  0
   21.8740  -48.5460  -14.6760 C   0  0  0  0  0  0  0  0  0  0  0  0
   20.8040  -49.2060  -15.4940 C   0  0  0  0  0  0  0  0  0  0  0  0
   23.0640  -48.4070  -15.2560 N   0  0  0  0  0  0  0  0  0  0  0  0
   23.7980  -45.7290  -16.0750 O   0  0  0  0  0  0  0  0  0  0  0  0
   26.6030  -45.1270  -15.8710 O   0  0  0  0  0  0  0  0  0  0  0  0
   26.1290  -47.7370  -13.3140 O   0  0  0  0  0  0  0  0  0  0  0  0
   28.4820  -46.8650  -12.4250 O   0  0  0  0  0  0  0  0  0  0  0  0
   21.6400  -48.1640  -13.5290 O   0  0  0  0  0  0  0  0  0  0  0  0
   -8.0520  -35.7790  -47.0130 C   0  0  0  0  0  0  0  0  0  0  0  0
   -9.5320  -35.5070  -47.3090 C   0  0  1  0  0  0  0  0  0  0  0  0
  -10.0120  -36.2880  -48.5360 C   0  0  2  0  0  0  0  0  0  0  0  0
   -9.0960  -36.0010  -49.7240 C   0  0  1  0  0  0  0  0  0  0  0  0
   -7.6670  -36.3750  -49.3310 C   0  0  1  0  0  0  0  0  0  0  0  0
   -6.6820  -36.2580  -50.5060 C   0  0  0  0  0  0  0  0  0  0  0  0
  -10.7510  -34.8830  -45.2780 C   0  0  0  0  0  0  0  0  0  0  0  0
  -11.7130  -35.3290  -44.2090 C   0  0  0  0  0  0  0  0  0  0  0  0
  -10.3390  -35.8180  -46.1410 N   0  0  0  0  0  0  0  0  0  0  0  0
  -11.3450  -35.9640  -48.8620 O   0  0  0  0  0  0  0  0  0  0  0  0
   -9.5140  -36.7120  -50.8750 O   0  0  0  0  0  0  0  0  0  0  0  0
   -7.2530  -35.6230  -48.1870 O   0  0  0  0  0  0  0  0  0  0  0  0
   -7.1800  -35.4140  -51.5240 O   0  0  0  0  0  0  0  0  0  0  0  0
  -10.3810  -33.7060  -45.3190 O   0  0  0  0  0  0  0  0  0  0  0  0
  1 12  1  0  0  0  0
  2  9  1  6  0  0  0
  2  1  1  0  0  0  0
  3 10  1  1  0  0  0
  3  4  1  0  0  0  0
  3  2  1  0  0  0  0
  4 11  1  6  0  0  0
  4  5  1  0  0  0  0
  5 12  1  0  0  0  0
  5  6  1  1  0  0  0
  6 13  1  0  0  0  0
  7  8  1  0  0  0  0
  9  7  1  0  0  0  0
 14  7  2  0  0  0  0
 15 11  1  6  0  0  0
 16 15  1  0  0  0  0
 16 23  1  1  0  0  0
 17 24  1  6  0  0  0
 17 16  1  0  0  0  0
 18 25  1  1  0  0  0
 18 17  1  0  0  0  0
 18 19  1  0  0  0  0
 19 20  1  6  0  0  0
 20 27  1  0  0  0  0
 21 23  1  0  0  0  0
 21 22  1  0  0  0  0
 26 19  1  0  0  0  0
 26 15  1  0  0  0  0
 28 21  2  0  0  0  0
 29 30  1  0  0  0  0
 30 37  1  1  0  0  0
 31 30  1  0  0  0  0
 31 38  1  1  0  0  0
 32 39  1  1  0  0  0
 32 31  1  0  0  0  0
 33 34  1  6  0  0  0
 33 40  1  0  0  0  0
 33 32  1  0  0  0  0
 35 42  2  0  0  0  0
 36 35  1  0  0  0  0
 37 35  1  0  0  0  0
 40 29  1  0  0  0  0
 41 34  1  0  0  0  0
 43 54  1  0  0  0  0
 43 39  1  1  0  0  0
 44 51  1  6  0  0  0
 44 43  1  0  0  0  0
 45 52  1  1  0  0  0
 45 46  1  0  0  0  0
 45 44  1  0  0  0  0
 46 53  1  6  0  0  0
 46 47  1  0  0  0  0
 47 48  1  1  0  0  0
 47 54  1  0  0  0  0
 48 55  1  0  0  0  0
 49 56  2  0  0  0  0
 50 49  1  0  0  0  0
 51 49  1  0  0  0  0
 58 57  1  0  0  0  0
 58 65  1  1  0  0  0
 59 66  1  6  0  0  0
 59 58  1  0  0  0  0
 60 67  1  6  0  0  0
 60 61  1  0  0  0  0
 60 59  1  0  0  0  0
 61 62  1  6  0  0  0
 61 68  1  0  0  0  0
 63 64  1  0  0  0  0
 65 63  1  0  0  0  0
 68 57  1  0  0  0  0
 69 62  1  0  0  0  0
 70 63  2  0  0  0  0
M  END
$$$$
