/Users/chinazoemeh/HopeMScP/data/ligands/ache/AChE_31_8DT5/AChE_31_8DT5.pdb
 OpenBabel07172512173D

 54 45  0  0  0  0  0  0  0  0999 V2000
   78.6220  135.4690    8.3970 C   0  0  0  0  0  0  0  0  0  0  0  0
   79.3050  135.0490    7.2340 O   0  0  0  0  0  0  0  0  0  0  0  0
   79.3010  134.9120    9.6480 C   0  0  0  0  0  0  0  0  0  0  0  0
   78.3600  134.2140   10.4330 O   0  0  0  0  0  0  0  0  0  0  0  0
   80.4650  134.0030    9.2610 C   0  0  0  0  0  0  0  0  0  0  0  0
   81.3260  133.8250   10.3640 O   0  0  0  0  0  0  0  0  0  0  0  0
   87.7750  148.1790   10.5850 C   0  0  0  0  0  0  0  0  0  0  0  0
   88.4170  148.2560    9.3320 O   0  0  0  0  0  0  0  0  0  0  0  0
   86.8210  149.3580   10.7240 C   0  0  0  0  0  0  0  0  0  0  0  0
   86.7390  150.0170    9.4800 O   0  0  0  0  0  0  0  0  0  0  0  0
   87.3460  150.3220   11.7850 C   0  0  0  0  0  0  0  0  0  0  0  0
   87.3670  149.6860   13.0460 O   0  0  0  0  0  0  0  0  0  0  0  0
   69.7010  140.0380   15.1590 C   0  0  0  0  0  0  0  0  0  0  0  0
   69.9140  140.5650   16.4490 O   0  0  0  0  0  0  0  0  0  0  0  0
   71.0260  140.1100   14.4160 C   0  0  0  0  0  0  0  0  0  0  0  0
   72.0050  140.5460   15.3320 O   0  0  0  0  0  0  0  0  0  0  0  0
   70.9210  141.1200   13.2780 C   0  0  0  0  0  0  0  0  0  0  0  0
   69.7270  140.9060   12.5580 O   0  0  0  0  0  0  0  0  0  0  0  0
   42.3440  133.2540   12.3550 C   0  0  0  0  0  0  0  0  0  0  0  0
   43.4320  132.3550   12.3070 O   0  0  0  0  0  0  0  0  0  0  0  0
   42.4650  134.2810   11.2320 C   0  0  0  0  0  0  0  0  0  0  0  0
   41.1840  134.5590   10.7070 O   0  0  0  0  0  0  0  0  0  0  0  0
   43.3790  133.7410   10.1350 C   0  0  0  0  0  0  0  0  0  0  0  0
   43.4310  134.6480    9.0560 O   0  0  0  0  0  0  0  0  0  0  0  0
   45.9620  135.3370  -10.4660 C   0  0  0  0  0  0  0  0  0  0  0  0
   45.2890  135.1840   -9.2340 O   0  0  0  0  0  0  0  0  0  0  0  0
   45.6890  134.1230  -11.3480 C   0  0  0  0  0  0  0  0  0  0  0  0
   45.9870  134.4160  -12.6960 O   0  0  0  0  0  0  0  0  0  0  0  0
   44.2480  133.6340  -11.1970 C   0  0  0  0  0  0  0  0  0  0  0  0
   43.4220  134.2140  -12.1830 O   0  0  0  0  0  0  0  0  0  0  0  0
   71.1170  128.4670  -34.9490 C   0  0  0  0  0  0  0  0  0  0  0  0
   69.7690  128.0640  -35.0750 O   0  0  0  0  0  0  0  0  0  0  0  0
   71.6990  128.8010  -36.3200 C   0  0  0  0  0  0  0  0  0  0  0  0
   72.5430  127.7520  -36.7470 O   0  0  0  0  0  0  0  0  0  0  0  0
   72.5000  130.0960  -36.2290 C   0  0  0  0  0  0  0  0  0  0  0  0
   73.2210  130.2990  -37.4250 O   0  0  0  0  0  0  0  0  0  0  0  0
   37.5940  150.3650  -13.1000 C   0  0  0  0  0  0  0  0  0  0  0  0
   38.9700  150.2690  -12.8050 O   0  0  0  0  0  0  0  0  0  0  0  0
   36.8030  149.6920  -11.9850 C   0  0  0  0  0  0  0  0  0  0  0  0
   37.5200  149.7810  -10.7730 O   0  0  0  0  0  0  0  0  0  0  0  0
   36.5920  148.2300  -12.3580 C   0  0  0  0  0  0  0  0  0  0  0  0
   36.2530  147.4820  -11.2100 O   0  0  0  0  0  0  0  0  0  0  0  0
   55.1520  140.2640  -15.7020 C   0  0  0  0  0  0  0  0  0  0  0  0
   54.3630  140.7190  -14.6210 O   0  0  0  0  0  0  0  0  0  0  0  0
   54.2610  139.8210  -16.8620 C   0  0  0  0  0  0  0  0  0  0  0  0
   52.9210  140.2030  -16.6340 O   0  0  0  0  0  0  0  0  0  0  0  0
   54.7130  140.5540  -18.1060 C   0  0  0  0  0  0  0  0  0  0  0  0
   54.3680  141.9070  -17.9100 O   0  0  0  0  0  0  0  0  0  0  0  0
   81.9720  133.6310  -11.0570 C   0  0  0  0  0  0  0  0  0  0  0  0
   81.2990  134.1860   -9.9480 O   0  0  0  0  0  0  0  0  0  0  0  0
   81.8800  134.5980  -12.2310 C   0  0  0  0  0  0  0  0  0  0  0  0
   80.7720  134.2440  -13.0290 O   0  0  0  0  0  0  0  0  0  0  0  0
   83.1580  134.5310  -13.0630 C   0  0  0  0  0  0  0  0  0  0  0  0
   83.0200  133.5590  -14.0790 O   0  0  0  0  0  0  0  0  0  0  0  0
  1  3  1  0  0  0  0
  2  1  1  0  0  0  0
  3  4  1  0  0  0  0
  5  3  1  0  0  0  0
  5  6  1  0  0  0  0
  7  9  1  0  0  0  0
  8  7  1  0  0  0  0
  9 11  1  0  0  0  0
 10  9  1  0  0  0  0
 11 12  1  0  0  0  0
 13 14  1  0  0  0  0
 15 13  1  0  0  0  0
 15 16  1  0  0  0  0
 17 15  1  0  0  0  0
 18 17  1  0  0  0  0
 20 19  1  0  0  0  0
 21 19  1  0  0  0  0
 22 21  1  0  0  0  0
 23 21  1  0  0  0  0
 24 23  1  0  0  0  0
 25 26  1  0  0  0  0
 27 29  1  0  0  0  0
 27 25  1  0  0  0  0
 28 27  1  0  0  0  0
 30 29  1  0  0  0  0
 32 31  1  0  0  0  0
 33 35  1  0  0  0  0
 33 31  1  0  0  0  0
 34 33  1  0  0  0  0
 36 35  1  0  0  0  0
 37 38  1  0  0  0  0
 37 39  1  0  0  0  0
 39 40  1  0  0  0  0
 41 39  1  0  0  0  0
 41 42  1  0  0  0  0
 43 44  1  0  0  0  0
 45 46  1  0  0  0  0
 45 43  1  0  0  0  0
 47 48  1  0  0  0  0
 47 45  1  0  0  0  0
 49 50  1  0  0  0  0
 51 49  1  0  0  0  0
 52 51  1  0  0  0  0
 53 51  1  0  0  0  0
 54 53  1  0  0  0  0
M  END
$$$$
