/Users/chinazoemeh/HopeMScP/data/ligands/ache/AChE_29_8DT2/AChE_29_8DT2.pdb
 OpenBabel07172512173D

 24 20  0  0  0  0  0  0  0  0999 V2000
  -47.2280   -8.5200   33.9120 C   0  0  0  0  0  0  0  0  0  0  0  0
  -47.3660   -7.5930   34.9660 O   0  0  0  0  0  0  0  0  0  0  0  0
  -48.3080   -8.2820   32.8610 C   0  0  0  0  0  0  0  0  0  0  0  0
  -47.7850   -8.5630   31.5800 O   0  0  0  0  0  0  0  0  0  0  0  0
  -48.7980   -6.8380   32.9370 C   0  0  0  0  0  0  0  0  0  0  0  0
  -49.8630   -6.6090   32.0390 O   0  0  0  0  0  0  0  0  0  0  0  0
  -37.7120  -12.6690   26.6020 C   0  0  0  0  0  0  0  0  0  0  0  0
  -38.1420  -13.2670   25.4040 O   0  0  0  0  0  0  0  0  0  0  0  0
  -38.8980  -12.6090   27.5460 C   0  0  0  0  0  0  0  0  0  0  0  0
  -39.3280  -11.2680   27.6200 O   0  0  0  0  0  0  0  0  0  0  0  0
  -38.4760  -13.1430   28.9120 C   0  0  0  0  0  0  0  0  0  0  0  0
  -37.4780  -12.3210   29.4760 O   0  0  0  0  0  0  0  0  0  0  0  0
  -30.9810  -36.5360   52.8200 C   0  0  0  0  0  0  0  0  0  0  0  0
  -30.1770  -37.1450   51.8350 O   0  0  0  0  0  0  0  0  0  0  0  0
  -31.3190  -37.5420   53.9160 C   0  0  0  0  0  0  0  0  0  0  0  0
  -31.3360  -36.8810   55.1630 O   0  0  0  0  0  0  0  0  0  0  0  0
  -30.2830  -38.6630   53.9260 C   0  0  0  0  0  0  0  0  0  0  0  0
  -30.6590  -39.7040   54.8020 O   0  0  0  0  0  0  0  0  0  0  0  0
  -29.5580  -27.6220   59.5480 C   0  0  0  0  0  0  0  0  0  0  0  0
  -29.5270  -27.2670   60.9080 O   0  0  0  0  0  0  0  0  0  0  0  0
  -30.6870  -26.8510   58.8790 C   0  0  0  0  0  0  0  0  0  0  0  0
  -31.1390  -25.8440   59.7570 O   0  0  0  0  0  0  0  0  0  0  0  0
  -30.1820  -26.2250   57.5840 C   0  0  0  0  0  0  0  0  0  0  0  0
  -29.3950  -27.1620   56.8830 O   0  0  0  0  0  0  0  0  0  0  0  0
  1  2  1  0  0  0  0
  3  5  1  0  0  0  0
  3  1  1  0  0  0  0
  4  3  1  0  0  0  0
  6  5  1  0  0  0  0
  7  9  1  0  0  0  0
  8  7  1  0  0  0  0
  9 10  1  0  0  0  0
  9 11  1  0  0  0  0
 11 12  1  0  0  0  0
 13 15  1  0  0  0  0
 14 13  1  0  0  0  0
 15 17  1  0  0  0  0
 15 16  1  0  0  0  0
 17 18  1  0  0  0  0
 19 20  1  0  0  0  0
 21 19  1  0  0  0  0
 21 22  1  0  0  0  0
 23 21  1  0  0  0  0
 24 23  1  0  0  0  0
M  END
$$$$
