/Users/chinazoemeh/HopeMScP/data/ligands/ache/AChE_75_2X8B/AChE_75_2X8B.pdb
 OpenBabel07172512173D

  3  0  0  0  0  0  0  0  0  0999 V2000
  121.9530  106.5400 -136.4450 U   0  0  0  0  0  0  0  0  0  0  0  0
  130.3260   98.8650 -133.2260 U   0  0  0  0  0  0  0  0  0  0  0  0
  117.3580  111.4750 -129.9760 U   0  0  0  0  0  0  0  0  0  0  0  0
M  END
$$$$
