/Users/chinazoemeh/HopeMScP/data/ligands/ache/AChE_27_7XN1/AChE_27_7XN1.pdb
 OpenBabel07172512173D

 42 43  0  0  1  0  0  0  0  0999 V2000
   33.5690  -48.6250  -42.4280 C   0  0  0  0  0  0  0  0  0  0  0  0
   32.4380  -48.6430  -43.4760 C   0  0  1  0  0  0  0  0  0  0  0  0
   31.5210  -47.4200  -43.3200 C   0  0  2  0  0  0  0  0  0  0  0  0
   31.0720  -47.2320  -41.8750 C   0  0  1  0  0  0  0  0  0  0  0  0
   32.3020  -47.2470  -40.9580 C   0  0  1  0  0  0  0  0  0  0  0  0
   31.9940  -47.1240  -39.4820 C   0  0  0  0  0  0  0  0  0  0  0  0
   32.8390  -49.7210  -45.6570 C   0  0  0  0  0  0  0  0  0  0  0  0
   32.0100  -50.8690  -45.1530 C   0  0  0  0  0  0  0  0  0  0  0  0
   32.9970  -48.6900  -44.8180 N   0  0  0  0  0  0  0  0  0  0  0  0
   30.3940  -47.5600  -44.1780 O   0  0  0  0  0  0  0  0  0  0  0  0
   30.3650  -45.9930  -41.7820 O   0  0  0  0  0  0  0  0  0  0  0  0
   33.0170  -48.4800  -41.1300 O   0  0  0  0  0  0  0  0  0  0  0  0
   31.0690  -48.1190  -39.0680 O   0  0  0  0  0  0  0  0  0  0  0  0
   33.3430  -49.7270  -46.7760 O   0  0  0  0  0  0  0  0  0  0  0  0
   29.1250  -46.1030  -41.0190 C   0  0  1  0  0  0  0  0  0  0  0  0
   28.8520  -44.7710  -40.2860 C   0  0  1  0  0  0  0  0  0  0  0  0
   27.5390  -44.8530  -39.4940 C   0  0  2  0  0  0  0  0  0  0  0  0
   26.4020  -45.3900  -40.3570 C   0  0  1  0  0  0  0  0  0  0  0  0
   26.8390  -46.6820  -41.0420 C   0  0  1  0  0  0  0  0  0  0  0  0
   25.7860  -47.3000  -41.9300 C   0  0  0  0  0  0  0  0  0  0  0  0
   30.6090  -43.2820  -39.4560 C   0  0  0  0  0  0  0  0  0  0  0  0
   31.7180  -43.1040  -38.4630 C   0  0  0  0  0  0  0  0  0  0  0  0
   29.9540  -44.4420  -39.3970 N   0  0  0  0  0  0  0  0  0  0  0  0
   27.2000  -43.5660  -38.9870 O   0  0  0  0  0  0  0  0  0  0  0  0
   25.2600  -45.6480  -39.5460 O   0  0  0  0  0  0  0  0  0  0  0  0
   27.9940  -46.4280  -41.8530 O   0  0  0  0  0  0  0  0  0  0  0  0
   25.4510  -48.5950  -41.4490 O   0  0  0  0  0  0  0  0  0  0  0  0
   30.3220  -42.4180  -40.2780 O   0  0  0  0  0  0  0  0  0  0  0  0
   62.0970   -8.8840  -74.8260 C   0  0  0  0  0  0  0  0  0  0  0  0
   62.9370   -8.4180  -73.6130 C   0  0  1  0  0  0  0  0  0  0  0  0
   62.1140   -7.5110  -72.6940 C   0  0  2  0  0  0  0  0  0  0  0  0
   61.5140   -6.3590  -73.4830 C   0  0  1  0  0  0  0  0  0  0  0  0
   60.6870   -6.9210  -74.6400 C   0  0  1  0  0  0  0  0  0  0  0  0
   60.1250   -5.8400  -75.5310 C   0  0  0  0  0  0  0  0  0  0  0  0
   64.7610   -9.8830  -72.8660 C   0  0  0  0  0  0  0  0  0  0  0  0
   65.6740   -9.0030  -73.6820 C   0  0  0  0  0  0  0  0  0  0  0  0
   63.4640   -9.5520  -72.8730 N   0  0  0  0  0  0  0  0  0  0  0  0
   62.9350   -6.9950  -71.6550 O   0  0  0  0  0  0  0  0  0  0  0  0
   60.7440   -5.5140  -72.6310 O   0  0  0  0  0  0  0  0  0  0  0  0
   61.5210   -7.7450  -75.4780 O   0  0  0  0  0  0  0  0  0  0  0  0
   61.1850   -5.0110  -75.9810 O   0  0  0  0  0  0  0  0  0  0  0  0
   65.1800  -10.8490  -72.2330 O   0  0  0  0  0  0  0  0  0  0  0  0
  1 12  1  0  0  0  0
  2  9  1  6  0  0  0
  2  3  1  0  0  0  0
  2  1  1  0  0  0  0
  3 10  1  6  0  0  0
  3  4  1  0  0  0  0
  4 11  1  6  0  0  0
  4  5  1  0  0  0  0
  5  6  1  1  0  0  0
  6 13  1  0  0  0  0
  7  8  1  0  0  0  0
  7  9  1  0  0  0  0
 12  5  1  0  0  0  0
 14  7  2  0  0  0  0
 15 11  1  6  0  0  0
 15 16  1  0  0  0  0
 16 17  1  0  0  0  0
 16 23  1  1  0  0  0
 17 24  1  6  0  0  0
 18 25  1  1  0  0  0
 18 17  1  0  0  0  0
 19 20  1  6  0  0  0
 19 18  1  0  0  0  0
 20 27  1  0  0  0  0
 21 23  1  0  0  0  0
 21 22  1  0  0  0  0
 26 19  1  0  0  0  0
 26 15  1  0  0  0  0
 28 21  2  0  0  0  0
 29 30  1  0  0  0  0
 30 37  1  1  0  0  0
 30 31  1  0  0  0  0
 31 38  1  1  0  0  0
 32 31  1  0  0  0  0
 32 39  1  1  0  0  0
 33 34  1  6  0  0  0
 33 32  1  0  0  0  0
 35 42  2  0  0  0  0
 36 35  1  0  0  0  0
 37 35  1  0  0  0  0
 40 29  1  0  0  0  0
 40 33  1  0  0  0  0
 41 34  1  0  0  0  0
M  END
$$$$
