/Users/chinazoemeh/HopeMScP/data/ligands/ache/AChE_47_6NTO/AChE_47_6NTO.pdb
 OpenBabel07172512173D

 98101  0  0  1  0  0  0  0  0999 V2000
   18.7950  -41.6360  -42.5150 C   0  0  0  0  0  0  0  0  0  0  0  0
   20.1180  -41.5380  -43.2800 C   0  0  1  0  0  0  0  0  0  0  0  0
   20.9930  -42.7560  -42.9910 C   0  0  2  0  0  0  0  0  0  0  0  0
   21.1860  -42.9350  -41.4920 C   0  0  1  0  0  0  0  0  0  0  0  0
   19.8230  -42.9930  -40.7990 C   0  0  1  0  0  0  0  0  0  0  0  0
   19.9160  -43.0520  -39.2920 C   0  0  0  0  0  0  0  0  0  0  0  0
   20.3000  -40.3530  -45.4270 C   0  0  0  0  0  0  0  0  0  0  0  0
   21.0390  -39.2880  -44.6720 C   0  0  0  0  0  0  0  0  0  0  0  0
   19.8860  -41.4030  -44.7090 N   0  0  0  0  0  0  0  0  0  0  0  0
   22.2540  -42.5970  -43.6310 O   0  0  0  0  0  0  0  0  0  0  0  0
   21.9180  -44.1370  -41.2590 O   0  0  0  0  0  0  0  0  0  0  0  0
   19.0590  -41.8180  -41.1150 O   0  0  0  0  0  0  0  0  0  0  0  0
   20.9990  -42.2610  -38.8200 O   0  0  0  0  0  0  0  0  0  0  0  0
   20.0890  -40.2670  -46.6320 O   0  0  0  0  0  0  0  0  0  0  0  0
   23.0660  -43.9420  -40.3860 C   0  0  1  0  0  0  0  0  0  0  0  0
   23.4210  -45.3040  -39.7810 C   0  0  1  0  0  0  0  0  0  0  0  0
   24.6130  -45.1630  -38.8390 C   0  0  2  0  0  0  0  0  0  0  0  0
   25.7800  -44.4960  -39.5540 C   0  0  1  0  0  0  0  0  0  0  0  0
   25.3390  -43.1760  -40.1820 C   0  0  1  0  0  0  0  0  0  0  0  0
   26.4230  -42.5190  -41.0020 C   0  0  0  0  0  0  0  0  0  0  0  0
   21.5130  -46.8380  -39.6160 C   0  0  0  0  0  0  0  0  0  0  0  0
   20.3810  -47.3200  -38.7600 C   0  0  0  0  0  0  0  0  0  0  0  0
   22.2830  -45.8810  -39.0860 N   0  0  0  0  0  0  0  0  0  0  0  0
   25.0000  -46.4490  -38.3650 O   0  0  0  0  0  0  0  0  0  0  0  0
   26.8380  -44.2500  -38.6340 O   0  0  0  0  0  0  0  0  0  0  0  0
   24.2230  -43.3960  -41.0600 O   0  0  0  0  0  0  0  0  0  0  0  0
   26.0670  -42.4390  -42.3750 O   0  0  0  0  0  0  0  0  0  0  0  0
   21.7220  -47.2910  -40.7360 O   0  0  0  0  0  0  0  0  0  0  0  0
   18.3240  -80.2280   -7.5770 C   0  0  0  0  0  0  0  0  0  0  0  0
   17.8600  -81.6540   -7.2970 C   0  0  1  0  0  0  0  0  0  0  0  0
   16.5680  -81.6700   -6.4930 C   0  0  2  0  0  0  0  0  0  0  0  0
   16.7210  -80.8010   -5.2540 C   0  0  1  0  0  0  0  0  0  0  0  0
   17.1750  -79.4030   -5.6510 C   0  0  1  0  0  0  0  0  0  0  0  0
   17.3550  -78.5200   -4.4210 C   0  0  0  0  0  0  0  0  0  0  0  0
   18.7030  -82.9100   -9.1940 C   0  0  0  0  0  0  0  0  0  0  0  0
   20.0540  -82.6690   -8.5880 C   0  0  0  0  0  0  0  0  0  0  0  0
   17.6760  -82.3710   -8.5440 N   0  0  0  0  0  0  0  0  0  0  0  0
   16.2600  -83.0120   -6.1030 O   0  0  0  0  0  0  0  0  0  0  0  0
   15.4690  -80.7220   -4.5650 O   0  0  0  0  0  0  0  0  0  0  0  0
   18.4070  -79.4680   -6.3700 O   0  0  0  0  0  0  0  0  0  0  0  0
   18.4500  -79.0100   -3.6400 O   0  0  0  0  0  0  0  0  0  0  0  0
   18.5570  -83.5600  -10.2160 O   0  0  0  0  0  0  0  0  0  0  0  0
   15.8410  -81.0720   -3.2710 C   0  0  1  0  0  0  0  0  0  0  0  0
   14.7490  -80.5210   -2.3980 C   0  0  1  0  0  0  0  0  0  0  0  0
   15.1970  -80.8190   -0.9900 C   0  0  2  0  0  0  0  0  0  0  0  0
   15.3710  -82.3190   -0.8550 C   0  0  1  0  0  0  0  0  0  0  0  0
   16.3650  -82.8630   -1.8780 C   0  0  1  0  0  0  0  0  0  0  0  0
   16.2860  -84.3670   -1.8890 C   0  0  0  0  0  0  0  0  0  0  0  0
   13.6790  -78.5170   -3.3290 C   0  0  0  0  0  0  0  0  0  0  0  0
   13.5890  -77.0260   -3.2570 C   0  0  0  0  0  0  0  0  0  0  0  0
   14.6540  -79.0980   -2.6220 N   0  0  0  0  0  0  0  0  0  0  0  0
   14.2030  -80.3640   -0.0970 O   0  0  0  0  0  0  0  0  0  0  0  0
   15.8230  -82.6210    0.4690 O   0  0  0  0  0  0  0  0  0  0  0  0
   15.9930  -82.4720   -3.1800 O   0  0  0  0  0  0  0  0  0  0  0  0
   14.8990  -84.6750   -1.9460 O   0  0  0  0  0  0  0  0  0  0  0  0
   12.8870  -79.1220   -4.0140 O   0  0  0  0  0  0  0  0  0  0  0  0
  -62.0410   -8.9850  -32.2430 C   0  0  0  0  0  0  0  0  0  0  0  0
  -62.9030   -8.4460  -33.3880 C   0  0  1  0  0  0  0  0  0  0  0  0
  -62.0790   -7.5420  -34.3020 C   0  0  2  0  0  0  0  0  0  0  0  0
  -61.3760   -6.4560  -33.4980 C   0  0  1  0  0  0  0  0  0  0  0  0
  -60.5650   -7.0890  -32.3700 C   0  0  1  0  0  0  0  0  0  0  0  0
  -59.9240   -6.0720  -31.4540 C   0  0  0  0  0  0  0  0  0  0  0  0
  -64.8080   -9.7730  -34.2020 C   0  0  0  0  0  0  0  0  0  0  0  0
  -65.6810   -8.8330  -33.4250 C   0  0  0  0  0  0  0  0  0  0  0  0
  -63.4930   -9.5370  -34.1470 N   0  0  0  0  0  0  0  0  0  0  0  0
  -62.9340   -6.9490  -35.2720 O   0  0  0  0  0  0  0  0  0  0  0  0
  -60.5110   -5.7180  -34.3540 O   0  0  0  0  0  0  0  0  0  0  0  0
  -61.4240   -7.8950  -31.5500 O   0  0  0  0  0  0  0  0  0  0  0  0
  -60.8090   -4.9900  -31.1970 O   0  0  0  0  0  0  0  0  0  0  0  0
  -65.2740  -10.7050  -34.8510 O   0  0  0  0  0  0  0  0  0  0  0  0
  -60.8290   -4.3070  -34.3310 C   0  0  1  0  0  0  0  0  0  0  0  0
  -59.6280   -3.5560  -34.9080 C   0  0  1  0  0  0  0  0  0  0  0  0
  -59.9050   -2.0560  -34.9350 C   0  0  2  0  0  0  0  0  0  0  0  0
  -61.2120   -1.7680  -35.6630 C   0  0  1  0  0  0  0  0  0  0  0  0
  -62.3460   -2.5930  -35.0590 C   0  0  1  0  0  0  0  0  0  0  0  0
  -63.6510   -2.4410  -35.8070 C   0  0  0  0  0  0  0  0  0  0  0  0
  -57.4650   -4.6700  -34.5760 C   0  0  0  0  0  0  0  0  0  0  0  0
  -56.2910   -4.8470  -33.6610 C   0  0  0  0  0  0  0  0  0  0  0  0
  -58.4220   -3.8400  -34.1470 N   0  0  0  0  0  0  0  0  0  0  0  0
  -58.8300   -1.3870  -35.5850 O   0  0  0  0  0  0  0  0  0  0  0  0
  -61.5300   -0.3850  -35.5630 O   0  0  0  0  0  0  0  0  0  0  0  0
  -62.0080   -3.9880  -35.0910 O   0  0  0  0  0  0  0  0  0  0  0  0
  -64.7060   -3.1340  -35.1550 O   0  0  0  0  0  0  0  0  0  0  0  0
  -57.5430   -5.2500  -35.6540 O   0  0  0  0  0  0  0  0  0  0  0  0
   -4.8900  -29.8910  -28.8550 C   0  0  0  0  0  0  0  0  0  0  0  0
   -3.7990  -30.3870  -27.9000 C   0  0  1  0  0  0  0  0  0  0  0  0
   -3.6890  -29.4620  -26.6850 C   0  0  2  0  0  0  0  0  0  0  0  0
   -3.5870  -28.0020  -27.1110 C   0  0  1  0  0  0  0  0  0  0  0  0
   -4.7120  -27.6600  -28.0790 C   0  0  1  0  0  0  0  0  0  0  0  0
   -4.6420  -26.2480  -28.6110 C   0  0  0  0  0  0  0  0  0  0  0  0
   -3.1470  -32.7060  -27.3990 C   0  0  0  0  0  0  0  0  0  0  0  0
   -3.6250  -34.0510  -26.9400 C   0  0  0  0  0  0  0  0  0  0  0  0
   -4.0790  -31.7490  -27.4750 N   0  0  0  0  0  0  0  0  0  0  0  0
   -2.5420  -29.8220  -25.9230 O   0  0  0  0  0  0  0  0  0  0  0  0
   -3.6810  -27.1570  -25.9700 O   0  0  0  0  0  0  0  0  0  0  0  0
   -4.6410  -28.5380  -29.2090 O   0  0  0  0  0  0  0  0  0  0  0  0
   -3.3240  -25.9040  -29.0160 O   0  0  0  0  0  0  0  0  0  0  0  0
   -1.9740  -32.4950  -27.6870 O   0  0  0  0  0  0  0  0  0  0  0  0
  1 12  1  0  0  0  0
  2  9  1  6  0  0  0
  2  3  1  0  0  0  0
  2  1  1  0  0  0  0
  3 10  1  6  0  0  0
  3  4  1  0  0  0  0
  4 11  1  6  0  0  0
  4  5  1  0  0  0  0
  5  6  1  1  0  0  0
  6 13  1  0  0  0  0
  7  9  1  0  0  0  0
  7  8  1  0  0  0  0
 12  5  1  0  0  0  0
 14  7  2  0  0  0  0
 15 11  1  6  0  0  0
 15 16  1  0  0  0  0
 16 23  1  1  0  0  0
 16 17  1  0  0  0  0
 17 24  1  6  0  0  0
 18 17  1  0  0  0  0
 18 25  1  1  0  0  0
 19 20  1  6  0  0  0
 19 18  1  0  0  0  0
 21 23  1  0  0  0  0
 21 22  1  0  0  0  0
 26 15  1  0  0  0  0
 26 19  1  0  0  0  0
 27 20  1  0  0  0  0
 28 21  2  0  0  0  0
 29 30  1  0  0  0  0
 29 40  1  0  0  0  0
 30 37  1  6  0  0  0
 30 31  1  0  0  0  0
 31 38  1  1  0  0  0
 31 32  1  0  0  0  0
 32 39  1  6  0  0  0
 33 32  1  0  0  0  0
 33 34  1  1  0  0  0
 34 41  1  0  0  0  0
 35 36  1  0  0  0  0
 35 37  1  0  0  0  0
 40 33  1  0  0  0  0
 42 35  2  0  0  0  0
 43 39  1  6  0  0  0
 43 54  1  0  0  0  0
 43 44  1  0  0  0  0
 44 51  1  1  0  0  0
 44 45  1  0  0  0  0
 45 46  1  0  0  0  0
 45 52  1  1  0  0  0
 46 53  1  1  0  0  0
 47 48  1  6  0  0  0
 47 46  1  0  0  0  0
 49 50  1  0  0  0  0
 49 51  1  0  0  0  0
 54 47  1  0  0  0  0
 55 48  1  0  0  0  0
 56 49  2  0  0  0  0
 57 68  1  0  0  0  0
 58 65  1  6  0  0  0
 58 57  1  0  0  0  0
 59 66  1  6  0  0  0
 59 60  1  0  0  0  0
 59 58  1  0  0  0  0
 60 67  1  6  0  0  0
 60 61  1  0  0  0  0
 61 68  1  0  0  0  0
 61 62  1  1  0  0  0
 62 69  1  0  0  0  0
 63 65  1  0  0  0  0
 63 64  1  0  0  0  0
 70 63  2  0  0  0  0
 71 67  1  6  0  0  0
 72 71  1  0  0  0  0
 72 79  1  1  0  0  0
 73 80  1  6  0  0  0
 73 72  1  0  0  0  0
 74 81  1  1  0  0  0
 74 75  1  0  0  0  0
 74 73  1  0  0  0  0
 75 76  1  6  0  0  0
 76 83  1  0  0  0  0
 77 79  1  0  0  0  0
 77 78  1  0  0  0  0
 82 75  1  0  0  0  0
 82 71  1  0  0  0  0
 84 77  2  0  0  0  0
 85 86  1  0  0  0  0
 86 93  1  1  0  0  0
 86 87  1  0  0  0  0
 87 94  1  6  0  0  0
 88 87  1  0  0  0  0
 88 95  1  1  0  0  0
 89 90  1  6  0  0  0
 89 88  1  0  0  0  0
 91 92  1  0  0  0  0
 93 91  1  0  0  0  0
 96 85  1  0  0  0  0
 96 89  1  0  0  0  0
 97 90  1  0  0  0  0
 98 91  2  0  0  0  0
M  END
$$$$
