/Users/chinazoemeh/HopeMScP/data/ligands/ache/AChE_72_4BDT/AChE_72_4BDT.pdb
 OpenBabel07172512173D

 28 29  0  0  1  0  0  0  0  0999 V2000
   -1.5320  -34.6780  -30.9850 C   0  0  0  0  0  0  0  0  0  0  0  0
   -1.3690  -35.1040  -29.5220 C   0  0  1  0  0  0  0  0  0  0  0  0
   -1.9450  -36.4900  -29.1850 C   0  0  2  0  0  0  0  0  0  0  0  0
   -3.3280  -36.8000  -29.7930 C   0  0  1  0  0  0  0  0  0  0  0  0
   -3.4480  -36.2760  -31.2360 C   0  0  1  0  0  0  0  0  0  0  0  0
   -4.9240  -36.2970  -31.7200 C   0  0  0  0  0  0  0  0  0  0  0  0
    0.5000  -34.3590  -28.1050 C   0  0  0  0  0  0  0  0  0  0  0  0
    0.8330  -35.1480  -26.8680 C   0  0  0  0  0  0  0  0  0  0  0  0
    0.0420  -35.0570  -29.1510 N   0  0  0  0  0  0  0  0  0  0  0  0
   -1.9960  -36.6020  -27.7710 O   0  0  0  0  0  0  0  0  0  0  0  0
   -3.5940  -38.2140  -29.7460 O   0  0  0  0  0  0  0  0  0  0  0  0
   -2.8280  -35.0090  -31.4710 O   0  0  0  0  0  0  0  0  0  0  0  0
   -5.5860  -35.0620  -31.9770 O   0  0  0  0  0  0  0  0  0  0  0  0
    0.6590  -33.1350  -28.1240 O   0  0  0  0  0  0  0  0  0  0  0  0
   -4.8660  -38.6150  -29.1390 C   0  0  1  0  0  0  0  0  0  0  0  0
   -5.3590  -39.9490  -29.7360 C   0  0  1  0  0  0  0  0  0  0  0  0
   -6.5580  -40.5830  -28.9940 C   0  0  2  0  0  0  0  0  0  0  0  0
   -6.4470  -40.4760  -27.4620 C   0  0  1  0  0  0  0  0  0  0  0  0
   -6.1160  -39.0150  -27.1800 C   0  0  1  0  0  0  0  0  0  0  0  0
   -6.1110  -38.6810  -25.7010 C   0  0  0  0  0  0  0  0  0  0  0  0
   -4.7890  -39.9160  -32.1260 C   0  0  0  0  0  0  0  0  0  0  0  0
   -5.2180  -39.4250  -33.4780 C   0  0  0  0  0  0  0  0  0  0  0  0
   -5.6830  -39.7720  -31.1450 N   0  0  0  0  0  0  0  0  0  0  0  0
   -6.6940  -41.9320  -29.4050 O   0  0  0  0  0  0  0  0  0  0  0  0
   -7.6070  -40.9000  -26.7330 O   0  0  0  0  0  0  0  0  0  0  0  0
   -4.8500  -38.6960  -27.7270 O   0  0  0  0  0  0  0  0  0  0  0  0
   -5.7760  -37.3150  -25.6180 O   0  0  0  0  0  0  0  0  0  0  0  0
   -3.6740  -40.4100  -31.9620 O   0  0  0  0  0  0  0  0  0  0  0  0
  1  2  1  0  0  0  0
  2  3  1  0  0  0  0
  2  9  1  6  0  0  0
  3 10  1  1  0  0  0
  4 11  1  6  0  0  0
  4  3  1  0  0  0  0
  5  6  1  1  0  0  0
  5  4  1  0  0  0  0
  7  8  1  0  0  0  0
  9  7  1  0  0  0  0
 12  5  1  0  0  0  0
 12  1  1  0  0  0  0
 13  6  1  0  0  0  0
 14  7  2  0  0  0  0
 15 11  1  6  0  0  0
 15 26  1  0  0  0  0
 16 23  1  6  0  0  0
 16 15  1  0  0  0  0
 16 17  1  0  0  0  0
 17 24  1  1  0  0  0
 17 18  1  0  0  0  0
 18 19  1  0  0  0  0
 18 25  1  1  0  0  0
 19 20  1  1  0  0  0
 20 27  1  0  0  0  0
 21 28  2  0  0  0  0
 21 23  1  0  0  0  0
 22 21  1  0  0  0  0
 26 19  1  0  0  0  0
M  END
$$$$
