/Users/chinazoemeh/HopeMScP/data/ligands/ache/AChE_23_6U34/AChE_23_6U34.pdb
 OpenBabel07172512173D

 30 25  0  0  0  0  0  0  0  0999 V2000
   78.7340  152.9800   -7.4180 C   0  0  0  0  0  0  0  0  0  0  0  0
   79.3240  153.1320   -6.1460 O   0  0  0  0  0  0  0  0  0  0  0  0
   79.3310  153.9830   -8.4020 C   0  0  0  0  0  0  0  0  0  0  0  0
   78.6480  153.8840   -9.6320 O   0  0  0  0  0  0  0  0  0  0  0  0
   80.8120  153.6850   -8.6150 C   0  0  0  0  0  0  0  0  0  0  0  0
   81.4830  154.8100   -9.1400 O   0  0  0  0  0  0  0  0  0  0  0  0
   62.2930  140.5080   -3.2780 C   0  0  0  0  0  0  0  0  0  0  0  0
   62.0590  141.3090   -2.1390 O   0  0  0  0  0  0  0  0  0  0  0  0
   63.7190  140.7160   -3.7770 C   0  0  0  0  0  0  0  0  0  0  0  0
   63.7230  141.6050   -4.8730 O   0  0  0  0  0  0  0  0  0  0  0  0
   64.3040  139.3790   -4.2130 C   0  0  0  0  0  0  0  0  0  0  0  0
   65.5660  139.5930   -4.8050 O   0  0  0  0  0  0  0  0  0  0  0  0
   46.2480  153.0050   11.6270 C   0  0  0  0  0  0  0  0  0  0  0  0
   45.3910  153.0060   10.5070 O   0  0  0  0  0  0  0  0  0  0  0  0
   45.6950  153.9240   12.7140 C   0  0  0  0  0  0  0  0  0  0  0  0
   46.3060  153.6130   13.9470 O   0  0  0  0  0  0  0  0  0  0  0  0
   44.1800  153.7680   12.8190 C   0  0  0  0  0  0  0  0  0  0  0  0
   43.6360  154.6790   13.7500 O   0  0  0  0  0  0  0  0  0  0  0  0
   72.0890  158.4800   38.6170 C   0  0  0  0  0  0  0  0  0  0  0  0
   72.3880  157.5660   37.5860 O   0  0  0  0  0  0  0  0  0  0  0  0
   71.5290  159.7620   38.0130 C   0  0  0  0  0  0  0  0  0  0  0  0
   72.6040  160.6040   37.6640 O   0  0  0  0  0  0  0  0  0  0  0  0
   70.7190  159.4330   36.7650 C   0  0  0  0  0  0  0  0  0  0  0  0
   69.8470  160.5020   36.4700 O   0  0  0  0  0  0  0  0  0  0  0  0
   61.5140  141.3950    8.0780 C   0  0  0  0  0  0  0  0  0  0  0  0
   62.5420  140.4730    7.7910 O   0  0  0  0  0  0  0  0  0  0  0  0
   60.6950  140.8990    9.2650 C   0  0  0  0  0  0  0  0  0  0  0  0
   59.6630  140.0470    8.8180 O   0  0  0  0  0  0  0  0  0  0  0  0
   60.1150  142.0890   10.0260 C   0  0  0  0  0  0  0  0  0  0  0  0
   59.5310  143.0050    9.1240 O   0  0  0  0  0  0  0  0  0  0  0  0
  1  2  1  0  0  0  0
  3  1  1  0  0  0  0
  4  3  1  0  0  0  0
  5  3  1  0  0  0  0
  6  5  1  0  0  0  0
  7  8  1  0  0  0  0
  9  7  1  0  0  0  0
 10  9  1  0  0  0  0
 11  9  1  0  0  0  0
 12 11  1  0  0  0  0
 13 15  1  0  0  0  0
 14 13  1  0  0  0  0
 15 17  1  0  0  0  0
 15 16  1  0  0  0  0
 17 18  1  0  0  0  0
 20 19  1  0  0  0  0
 21 19  1  0  0  0  0
 22 21  1  0  0  0  0
 23 21  1  0  0  0  0
 24 23  1  0  0  0  0
 25 27  1  0  0  0  0
 26 25  1  0  0  0  0
 27 29  1  0  0  0  0
 28 27  1  0  0  0  0
 30 29  1  0  0  0  0
M  END
$$$$
