/Users/chinazoemeh/HopeMScP/data/ligands/ache/AChE_38_6CQW/AChE_38_6CQW.pdb
 OpenBabel07172512173D

 98100  0  0  1  0  0  0  0  0999 V2000
   59.3420    4.5600   11.8420 C   0  0  0  0  0  0  0  0  0  0  0  0
   58.5910    3.5470   10.9830 C   0  0  1  0  0  0  0  0  0  0  0  0
   57.0950    3.5860   11.2570 C   0  0  2  0  0  0  0  0  0  0  0  0
   56.8410    3.4590   12.7510 C   0  0  1  0  0  0  0  0  0  0  0  0
   57.6250    4.5260   13.5040 C   0  0  1  0  0  0  0  0  0  0  0  0
   57.3970    4.4080   15.0070 C   0  0  0  0  0  0  0  0  0  0  0  0
   59.9500    3.3660    8.9810 C   0  0  0  0  0  0  0  0  0  0  0  0
   61.2290    3.6070    9.7260 C   0  0  0  0  0  0  0  0  0  0  0  0
   58.8440    3.8020    9.5780 N   0  0  0  0  0  0  0  0  0  0  0  0
   56.4510    2.5080   10.5680 O   0  0  0  0  0  0  0  0  0  0  0  0
   55.4430    3.6140   13.0160 O   0  0  0  0  0  0  0  0  0  0  0  0
   59.0200    4.4010   13.2260 O   0  0  0  0  0  0  0  0  0  0  0  0
   57.9590    3.1780   15.4790 O   0  0  0  0  0  0  0  0  0  0  0  0
   59.9250    2.8060    7.8970 O   0  0  0  0  0  0  0  0  0  0  0  0
   55.0430    2.6220   13.9790 C   0  0  1  0  0  0  0  0  0  0  0  0
   53.5760    2.8290   14.3430 C   0  0  1  0  0  0  0  0  0  0  0  0
   53.0890    1.7630   15.3150 C   0  0  2  0  0  0  0  0  0  0  0  0
   53.4180    0.3820   14.7730 C   0  0  1  0  0  0  0  0  0  0  0  0
   54.9050    0.2860   14.4590 C   0  0  1  0  0  0  0  0  0  0  0  0
   55.2550   -1.0880   13.8980 C   0  0  0  0  0  0  0  0  0  0  0  0
   53.2640    5.2280   14.1530 C   0  0  0  0  0  0  0  0  0  0  0  0
   53.8440    6.4910   14.7170 C   0  0  0  0  0  0  0  0  0  0  0  0
   53.3870    4.1470   14.9180 N   0  0  0  0  0  0  0  0  0  0  0  0
   51.6740    1.8850   15.4930 O   0  0  0  0  0  0  0  0  0  0  0  0
   53.0670   -0.6110   15.7420 O   0  0  0  0  0  0  0  0  0  0  0  0
   55.2770    1.2910   13.5150 O   0  0  0  0  0  0  0  0  0  0  0  0
   54.6420   -1.2500   12.6150 O   0  0  0  0  0  0  0  0  0  0  0  0
   52.7160    5.1940   13.0640 O   0  0  0  0  0  0  0  0  0  0  0  0
  128.5050   58.3610   21.6210 C   0  0  0  0  0  0  0  0  0  0  0  0
  129.2300   58.7590   20.3390 C   0  0  1  0  0  0  0  0  0  0  0  0
  129.4360   57.5620   19.4210 C   0  0  2  0  0  0  0  0  0  0  0  0
  130.0920   56.4290   20.1930 C   0  0  1  0  0  0  0  0  0  0  0  0
  129.2780   56.1070   21.4390 C   0  0  1  0  0  0  0  0  0  0  0  0
  129.9270   54.9820   22.2370 C   0  0  0  0  0  0  0  0  0  0  0  0
  128.5780   61.0710   19.9980 C   0  0  0  0  0  0  0  0  0  0  0  0
  129.9470   61.5370   20.3960 C   0  0  0  0  0  0  0  0  0  0  0  0
  128.4840   59.7920   19.6460 N   0  0  0  0  0  0  0  0  0  0  0  0
  130.2690   57.9390   18.3200 O   0  0  0  0  0  0  0  0  0  0  0  0
  130.1760   55.2670   19.3610 O   0  0  0  0  0  0  0  0  0  0  0  0
  129.1610   57.2670   22.2650 O   0  0  0  0  0  0  0  0  0  0  0  0
  131.1780   55.4340   22.7670 O   0  0  0  0  0  0  0  0  0  0  0  0
  127.6130   61.8170   19.9970 O   0  0  0  0  0  0  0  0  0  0  0  0
  131.5310   54.7800   19.3840 C   0  0  1  0  0  0  0  0  0  0  0  0
  131.5880   53.4040   18.7280 C   0  0  1  0  0  0  0  0  0  0  0  0
  133.0140   52.8740   18.6720 C   0  0  2  0  0  0  0  0  0  0  0  0
  133.9260   53.9140   18.0430 C   0  0  1  0  0  0  0  0  0  0  0  0
  133.7980   55.2380   18.7850 C   0  0  1  0  0  0  0  0  0  0  0  0
  134.6940   56.3000   18.1600 C   0  0  0  0  0  0  0  0  0  0  0  0
  129.4280   52.4260   19.2430 C   0  0  0  0  0  0  0  0  0  0  0  0
  128.6570   51.5360   20.1720 C   0  0  0  0  0  0  0  0  0  0  0  0
  130.7410   52.4740   19.4490 N   0  0  0  0  0  0  0  0  0  0  0  0
  133.0490   51.6710   17.8970 O   0  0  0  0  0  0  0  0  0  0  0  0
  135.2830   53.4610   18.1010 O   0  0  0  0  0  0  0  0  0  0  0  0
  132.4420   55.6870   18.7610 O   0  0  0  0  0  0  0  0  0  0  0  0
  134.6730   57.4800   18.9720 O   0  0  0  0  0  0  0  0  0  0  0  0
  128.8860   53.0640   18.3550 O   0  0  0  0  0  0  0  0  0  0  0  0
   26.4770   24.6310   47.0940 C   0  0  0  0  0  0  0  0  0  0  0  0
   25.6400   25.9200   46.9800 C   0  0  1  0  0  0  0  0  0  0  0  0
   25.9080   26.8450   48.1800 C   0  0  2  0  0  0  0  0  0  0  0  0
   25.8150   26.0920   49.5020 C   0  0  1  0  0  0  0  0  0  0  0  0
   26.6820   24.8410   49.4590 C   0  0  1  0  0  0  0  0  0  0  0  0
   26.5790   23.9920   50.7050 C   0  0  0  0  0  0  0  0  0  0  0  0
   25.3780   27.7540   45.3270 C   0  0  0  0  0  0  0  0  0  0  0  0
   25.8350   28.2740   43.9960 C   0  0  0  0  0  0  0  0  0  0  0  0
   25.9390   26.6040   45.7280 N   0  0  0  0  0  0  0  0  0  0  0  0
   24.9600   27.9070   48.1900 O   0  0  0  0  0  0  0  0  0  0  0  0
   26.2540   26.9310   50.5650 O   0  0  0  0  0  0  0  0  0  0  0  0
   26.2570   24.0230   48.3640 O   0  0  0  0  0  0  0  0  0  0  0  0
   27.5720   22.9750   50.7210 O   0  0  0  0  0  0  0  0  0  0  0  0
   24.5440   28.3500   46.0040 O   0  0  0  0  0  0  0  0  0  0  0  0
   81.0300   18.6850   24.5780 C   0  0  0  0  0  0  0  0  0  0  0  0
   82.4120   18.5600   25.2090 C   0  0  1  0  0  0  0  0  0  0  0  0
   82.4150   17.5120   26.3150 C   0  0  2  0  0  0  0  0  0  0  0  0
   81.2560   17.7340   27.2800 C   0  0  1  0  0  0  0  0  0  0  0  0
   79.9430   17.9090   26.5260 C   0  0  1  0  0  0  0  0  0  0  0  0
   78.7980   18.2070   27.4860 C   0  0  0  0  0  0  0  0  0  0  0  0
   83.3710   17.0330   23.5850 C   0  0  0  0  0  0  0  0  0  0  0  0
   84.4660   16.8000   22.5870 C   0  0  0  0  0  0  0  0  0  0  0  0
   83.3900   18.2150   24.1960 N   0  0  0  0  0  0  0  0  0  0  0  0
   83.6520   17.5780   27.0320 O   0  0  0  0  0  0  0  0  0  0  0  0
   81.1520   16.6140   28.1660 O   0  0  0  0  0  0  0  0  0  0  0  0
   80.0700   18.9780   25.5910 O   0  0  0  0  0  0  0  0  0  0  0  0
   78.0440   19.3220   26.9980 O   0  0  0  0  0  0  0  0  0  0  0  0
   82.5180   16.1940   23.8220 O   0  0  0  0  0  0  0  0  0  0  0  0
  116.2710   61.6490   45.6960 C   0  0  0  0  0  0  0  0  0  0  0  0
  116.6960   63.0900   45.9890 C   0  0  1  0  0  0  0  0  0  0  0  0
  118.1320   63.1220   46.5100 C   0  0  2  0  0  0  0  0  0  0  0  0
  118.3010   62.1630   47.6820 C   0  0  1  0  0  0  0  0  0  0  0  0
  117.7940   60.7720   47.3110 C   0  0  1  0  0  0  0  0  0  0  0  0
  117.8440   59.7930   48.4610 C   0  0  0  0  0  0  0  0  0  0  0  0
  115.9660   65.1140   44.8010 C   0  0  0  0  0  0  0  0  0  0  0  0
  115.9240   65.8280   43.4830 C   0  0  0  0  0  0  0  0  0  0  0  0
  116.5660   63.9200   44.8010 N   0  0  0  0  0  0  0  0  0  0  0  0
  118.4630   64.4460   46.9110 O   0  0  0  0  0  0  0  0  0  0  0  0
  119.6760   62.0780   48.0430 O   0  0  0  0  0  0  0  0  0  0  0  0
  116.4270   60.8490   46.8790 O   0  0  0  0  0  0  0  0  0  0  0  0
  119.1120   59.1570   48.5430 O   0  0  0  0  0  0  0  0  0  0  0  0
  115.4790   65.5980   45.8190 O   0  0  0  0  0  0  0  0  0  0  0  0
  1 12  1  0  0  0  0
  2  9  1  6  0  0  0
  2  3  1  0  0  0  0
  2  1  1  0  0  0  0
  3 10  1  6  0  0  0
  3  4  1  0  0  0  0
  4 11  1  6  0  0  0
  4  5  1  0  0  0  0
  5  6  1  1  0  0  0
  6 13  1  0  0  0  0
  7  9  1  0  0  0  0
  7  8  1  0  0  0  0
 12  5  1  0  0  0  0
 14  7  2  0  0  0  0
 15 11  1  6  0  0  0
 15 16  1  0  0  0  0
 16 23  1  1  0  0  0
 16 17  1  0  0  0  0
 17 24  1  6  0  0  0
 18 17  1  0  0  0  0
 18 25  1  1  0  0  0
 19 20  1  6  0  0  0
 19 18  1  0  0  0  0
 21 22  1  0  0  0  0
 21 23  1  0  0  0  0
 26 15  1  0  0  0  0
 26 19  1  0  0  0  0
 27 20  1  0  0  0  0
 28 21  2  0  0  0  0
 29 40  1  0  0  0  0
 30 37  1  6  0  0  0
 30 29  1  0  0  0  0
 31 38  1  6  0  0  0
 31 32  1  0  0  0  0
 31 30  1  0  0  0  0
 32 39  1  6  0  0  0
 32 33  1  0  0  0  0
 33 34  1  1  0  0  0
 33 40  1  0  0  0  0
 34 41  1  0  0  0  0
 35 36  1  0  0  0  0
 37 35  1  0  0  0  0
 42 35  2  0  0  0  0
 43 39  1  6  0  0  0
 44 43  1  0  0  0  0
 44 51  1  1  0  0  0
 45 52  1  6  0  0  0
 45 44  1  0  0  0  0
 46 53  1  1  0  0  0
 46 45  1  0  0  0  0
 46 47  1  0  0  0  0
 47 48  1  6  0  0  0
 48 55  1  0  0  0  0
 49 51  1  0  0  0  0
 49 50  1  0  0  0  0
 54 47  1  0  0  0  0
 54 43  1  0  0  0  0
 56 49  2  0  0  0  0
 57 68  1  0  0  0  0
 58 65  1  6  0  0  0
 58 57  1  0  0  0  0
 58 59  1  0  0  0  0
 59 66  1  1  0  0  0
 59 60  1  0  0  0  0
 60 67  1  1  0  0  0
 61 60  1  0  0  0  0
 61 62  1  1  0  0  0
 62 69  1  0  0  0  0
 63 65  1  0  0  0  0
 63 70  2  0  0  0  0
 64 63  1  0  0  0  0
 68 61  1  0  0  0  0
 71 72  1  0  0  0  0
 71 82  1  0  0  0  0
 72 79  1  6  0  0  0
 72 73  1  0  0  0  0
 73 80  1  1  0  0  0
 73 74  1  0  0  0  0
 74 81  1  1  0  0  0
 75 74  1  0  0  0  0
 75 76  1  1  0  0  0
 77 84  2  0  0  0  0
 77 79  1  0  0  0  0
 78 77  1  0  0  0  0
 82 75  1  0  0  0  0
 83 76  1  0  0  0  0
 85 86  1  0  0  0  0
 85 96  1  0  0  0  0
 86 93  1  6  0  0  0
 86 87  1  0  0  0  0
 87 94  1  1  0  0  0
 87 88  1  0  0  0  0
 88 95  1  6  0  0  0
 89 88  1  0  0  0  0
 89 90  1  1  0  0  0
 90 97  1  0  0  0  0
 91 98  2  0  0  0  0
 92 91  1  0  0  0  0
 93 91  1  0  0  0  0
 96 89  1  0  0  0  0
M  END
$$$$
