/Users/chinazoemeh/HopeMScP/data/ligands/ache/AChE_65_5HFA/AChE_65_5HFA.pdb
 OpenBabel07172512173D

 70 72  0  0  1  0  0  0  0  0999 V2000
  -23.0730  -58.6000   21.8390 C   0  0  0  0  0  0  0  0  0  0  0  0
  -23.9810  -59.1180   20.7080 C   0  0  1  0  0  0  0  0  0  0  0  0
  -24.4020  -57.9760   19.7820 C   0  0  2  0  0  0  0  0  0  0  0  0
  -24.9420  -56.7950   20.5750 C   0  0  1  0  0  0  0  0  0  0  0  0
  -23.9510  -56.4100   21.6710 C   0  0  1  0  0  0  0  0  0  0  0  0
  -24.4370  -55.2940   22.5710 C   0  0  0  0  0  0  0  0  0  0  0  0
  -23.8680  -61.3620   19.7020 C   0  0  0  0  0  0  0  0  0  0  0  0
  -25.2510  -61.5810   20.2470 C   0  0  0  0  0  0  0  0  0  0  0  0
  -23.3160  -60.1680   19.9510 N   0  0  0  0  0  0  0  0  0  0  0  0
  -25.4100  -58.4370   18.8910 O   0  0  0  0  0  0  0  0  0  0  0  0
  -25.1410  -55.7050   19.6810 O   0  0  0  0  0  0  0  0  0  0  0  0
  -23.7140  -57.5470   22.5130 O   0  0  0  0  0  0  0  0  0  0  0  0
  -25.8230  -55.4250   22.8530 O   0  0  0  0  0  0  0  0  0  0  0  0
  -23.2760  -62.2260   19.0640 O   0  0  0  0  0  0  0  0  0  0  0  0
  -26.4950  -55.1990   19.7070 C   0  0  1  0  0  0  0  0  0  0  0  0
  -26.4160  -53.7270   19.2970 C   0  0  1  0  0  0  0  0  0  0  0  0
  -27.8090  -53.0960   19.2980 C   0  0  2  0  0  0  0  0  0  0  0  0
  -28.7680  -53.9240   18.4470 C   0  0  1  0  0  0  0  0  0  0  0  0
  -28.7400  -55.3870   18.8960 C   0  0  1  0  0  0  0  0  0  0  0  0
  -29.5970  -56.2930   18.0450 C   0  0  0  0  0  0  0  0  0  0  0  0
  -24.4200  -52.3700   19.7330 C   0  0  0  0  0  0  0  0  0  0  0  0
  -23.5870  -51.6890   20.7810 C   0  0  0  0  0  0  0  0  0  0  0  0
  -25.5140  -52.9990   20.1750 N   0  0  0  0  0  0  0  0  0  0  0  0
  -27.7210  -51.7660   18.7960 O   0  0  0  0  0  0  0  0  0  0  0  0
  -30.0970  -53.4160   18.5420 O   0  0  0  0  0  0  0  0  0  0  0  0
  -27.3980  -55.8970   18.8300 O   0  0  0  0  0  0  0  0  0  0  0  0
  -29.4600  -57.6480   18.4510 O   0  0  0  0  0  0  0  0  0  0  0  0
  -24.1190  -52.3450   18.5370 O   0  0  0  0  0  0  0  0  0  0  0  0
   25.4910  -53.9810  -11.5420 C   0  0  0  0  0  0  0  0  0  0  0  0
   26.2840  -52.8550  -10.8740 C   0  0  1  0  0  0  0  0  0  0  0  0
   25.6140  -51.5170  -11.1360 C   0  0  2  0  0  0  0  0  0  0  0  0
   25.5100  -51.2760  -12.6340 C   0  0  1  0  0  0  0  0  0  0  0  0
   24.7650  -52.4440  -13.2960 C   0  0  1  0  0  0  0  0  0  0  0  0
   24.7700  -52.3840  -14.8150 C   0  0  0  0  0  0  0  0  0  0  0  0
   27.5990  -53.4910   -8.8990 C   0  0  0  0  0  0  0  0  0  0  0  0
   28.7410  -53.7290   -9.8500 C   0  0  0  0  0  0  0  0  0  0  0  0
   26.4470  -53.0790   -9.4470 N   0  0  0  0  0  0  0  0  0  0  0  0
   26.3700  -50.4750  -10.5330 O   0  0  0  0  0  0  0  0  0  0  0  0
   24.8420  -50.0340  -12.8520 O   0  0  0  0  0  0  0  0  0  0  0  0
   25.3620  -53.7080  -12.9400 O   0  0  0  0  0  0  0  0  0  0  0  0
   25.9940  -51.8790  -15.3380 O   0  0  0  0  0  0  0  0  0  0  0  0
   27.7120  -53.6720   -7.6930 O   0  0  0  0  0  0  0  0  0  0  0  0
   25.5820  -49.0990  -13.6970 C   0  0  1  0  0  0  0  0  0  0  0  0
   24.6150  -48.0080  -14.1760 C   0  0  1  0  0  0  0  0  0  0  0  0
   25.3450  -47.0260  -15.1000 C   0  0  2  0  0  0  0  0  0  0  0  0
   26.5970  -46.4790  -14.4200 C   0  0  1  0  0  0  0  0  0  0  0  0
   27.4780  -47.6220  -13.9090 C   0  0  1  0  0  0  0  0  0  0  0  0
   28.6760  -47.1410  -13.1190 C   0  0  0  0  0  0  0  0  0  0  0  0
   22.2580  -48.6700  -14.3100 C   0  0  0  0  0  0  0  0  0  0  0  0
   21.1980  -49.3140  -15.1550 C   0  0  0  0  0  0  0  0  0  0  0  0
   23.4730  -48.5960  -14.8560 N   0  0  0  0  0  0  0  0  0  0  0  0
   24.4780  -45.9570  -15.4710 O   0  0  0  0  0  0  0  0  0  0  0  0
   27.3390  -45.6740  -15.3320 O   0  0  0  0  0  0  0  0  0  0  0  0
   26.7210  -48.4810  -13.0380 O   0  0  0  0  0  0  0  0  0  0  0  0
   28.4190  -47.1480  -11.7200 O   0  0  0  0  0  0  0  0  0  0  0  0
   22.0240  -48.2380  -13.1830 O   0  0  0  0  0  0  0  0  0  0  0  0
   -8.4090  -35.3770  -46.6020 C   0  0  0  0  0  0  0  0  0  0  0  0
   -9.9130  -35.0830  -46.4230 C   0  0  1  0  0  0  0  0  0  0  0  0
  -10.5420  -34.6080  -47.7420 C   0  0  2  0  0  0  0  0  0  0  0  0
  -10.2640  -35.5730  -48.8960 C   0  0  1  0  0  0  0  0  0  0  0  0
   -8.8230  -36.0770  -48.8540 C   0  0  1  0  0  0  0  0  0  0  0  0
   -8.1410  -36.0830  -50.2070 C   0  0  0  0  0  0  0  0  0  0  0  0
  -11.3460  -36.2050  -44.7680 C   0  0  0  0  0  0  0  0  0  0  0  0
  -12.0240  -37.4870  -44.3840 C   0  0  0  0  0  0  0  0  0  0  0  0
  -10.6260  -36.2370  -45.8980 N   0  0  0  0  0  0  0  0  0  0  0  0
  -10.0580  -33.3060  -48.0580 O   0  0  0  0  0  0  0  0  0  0  0  0
  -11.1700  -36.6730  -48.8940 O   0  0  0  0  0  0  0  0  0  0  0  0
   -8.0470  -35.2350  -47.9900 O   0  0  0  0  0  0  0  0  0  0  0  0
   -8.3520  -34.8750  -50.9230 O   0  0  0  0  0  0  0  0  0  0  0  0
  -11.4500  -35.1830  -44.0870 O   0  0  0  0  0  0  0  0  0  0  0  0
  1 12  1  0  0  0  0
  2  9  1  6  0  0  0
  2  1  1  0  0  0  0
  3 10  1  6  0  0  0
  3  4  1  0  0  0  0
  3  2  1  0  0  0  0
  4 11  1  6  0  0  0
  4  5  1  0  0  0  0
  5 12  1  0  0  0  0
  5  6  1  1  0  0  0
  6 13  1  0  0  0  0
  7  9  1  0  0  0  0
  7  8  1  0  0  0  0
 14  7  2  0  0  0  0
 15 11  1  6  0  0  0
 16 17  1  0  0  0  0
 16 15  1  0  0  0  0
 16 23  1  1  0  0  0
 17 24  1  6  0  0  0
 18 25  1  1  0  0  0
 18 19  1  0  0  0  0
 18 17  1  0  0  0  0
 19 20  1  6  0  0  0
 20 27  1  0  0  0  0
 21 23  1  0  0  0  0
 21 22  1  0  0  0  0
 26 19  1  0  0  0  0
 26 15  1  0  0  0  0
 28 21  2  0  0  0  0
 29 30  1  0  0  0  0
 30 37  1  1  0  0  0
 31 30  1  0  0  0  0
 31 38  1  1  0  0  0
 32 39  1  1  0  0  0
 32 31  1  0  0  0  0
 33 34  1  6  0  0  0
 33 40  1  0  0  0  0
 33 32  1  0  0  0  0
 35 42  2  0  0  0  0
 36 35  1  0  0  0  0
 37 35  1  0  0  0  0
 40 29  1  0  0  0  0
 41 34  1  0  0  0  0
 43 54  1  0  0  0  0
 43 39  1  1  0  0  0
 44 51  1  6  0  0  0
 44 43  1  0  0  0  0
 45 52  1  1  0  0  0
 45 46  1  0  0  0  0
 45 44  1  0  0  0  0
 46 53  1  6  0  0  0
 46 47  1  0  0  0  0
 47 48  1  1  0  0  0
 47 54  1  0  0  0  0
 48 55  1  0  0  0  0
 49 56  2  0  0  0  0
 50 49  1  0  0  0  0
 51 49  1  0  0  0  0
 57 58  1  0  0  0  0
 58 65  1  6  0  0  0
 59 66  1  6  0  0  0
 59 58  1  0  0  0  0
 60 67  1  1  0  0  0
 60 61  1  0  0  0  0
 60 59  1  0  0  0  0
 61 62  1  6  0  0  0
 61 68  1  0  0  0  0
 63 64  1  0  0  0  0
 63 70  2  0  0  0  0
 65 63  1  0  0  0  0
 68 57  1  0  0  0  0
 69 62  1  0  0  0  0
M  END
$$$$
