/Users/chinazoemeh/HopeMScP/data/ligands/ache/AChE_19_6O50/AChE_19_6O50.pdb
 OpenBabel07172512173D

 24 20  0  0  0  0  0  0  0  0999 V2000
   32.2100    0.5650   -7.6460 C   0  0  0  0  0  0  0  0  0  0  0  0
   31.7790    0.7780   -6.3210 O   0  0  0  0  0  0  0  0  0  0  0  0
   31.4610    1.5070   -8.5790 C   0  0  0  0  0  0  0  0  0  0  0  0
   30.9000    0.7550   -9.6300 O   0  0  0  0  0  0  0  0  0  0  0  0
   32.4540    2.4980   -9.1710 C   0  0  0  0  0  0  0  0  0  0  0  0
   31.8150    3.7380   -9.3710 O   0  0  0  0  0  0  0  0  0  0  0  0
   12.3640  -30.4160  -10.8110 C   0  0  0  0  0  0  0  0  0  0  0  0
   12.5420  -31.8130  -10.7490 O   0  0  0  0  0  0  0  0  0  0  0  0
   13.2790  -29.7480   -9.7920 C   0  0  0  0  0  0  0  0  0  0  0  0
   12.9540  -30.2040   -8.4980 O   0  0  0  0  0  0  0  0  0  0  0  0
   13.0980  -28.2360   -9.8610 C   0  0  0  0  0  0  0  0  0  0  0  0
   13.9550  -27.6150   -8.9280 O   0  0  0  0  0  0  0  0  0  0  0  0
   15.7350  -27.8120   11.4350 C   0  0  0  0  0  0  0  0  0  0  0  0
   15.2230  -28.3120   10.2210 O   0  0  0  0  0  0  0  0  0  0  0  0
   14.6160  -27.7060   12.4650 C   0  0  0  0  0  0  0  0  0  0  0  0
   15.1520  -27.7560   13.7680 O   0  0  0  0  0  0  0  0  0  0  0  0
   13.6250  -28.8460   12.2620 C   0  0  0  0  0  0  0  0  0  0  0  0
   13.0480  -29.2080   13.4960 O   0  0  0  0  0  0  0  0  0  0  0  0
   31.9300    2.8680   12.3810 C   0  0  0  0  0  0  0  0  0  0  0  0
   31.0270    2.0970   13.1430 O   0  0  0  0  0  0  0  0  0  0  0  0
   32.3280    4.1120   13.1660 C   0  0  0  0  0  0  0  0  0  0  0  0
   32.1190    3.8900   14.5420 O   0  0  0  0  0  0  0  0  0  0  0  0
   33.8030    4.4070   12.9240 C   0  0  0  0  0  0  0  0  0  0  0  0
   34.1800    5.5550   13.6510 O   0  0  0  0  0  0  0  0  0  0  0  0
  1  2  1  0  0  0  0
  3  1  1  0  0  0  0
  4  3  1  0  0  0  0
  5  3  1  0  0  0  0
  6  5  1  0  0  0  0
  7  8  1  0  0  0  0
  7  9  1  0  0  0  0
  9 10  1  0  0  0  0
 11  9  1  0  0  0  0
 11 12  1  0  0  0  0
 13 15  1  0  0  0  0
 14 13  1  0  0  0  0
 15 16  1  0  0  0  0
 17 15  1  0  0  0  0
 17 18  1  0  0  0  0
 19 20  1  0  0  0  0
 19 21  1  0  0  0  0
 21 22  1  0  0  0  0
 23 21  1  0  0  0  0
 23 24  1  0  0  0  0
M  END
$$$$
